111
C:\Users\Javier\OneDrive - Universitat de Barcelona\Tesi\4 - Contribucions\Treballs\3-PhD\chapter_1\cif\pc4p\AGEPOU.pc4p.pdb
Ru         3.64500        3.05300        8.74200
Cl         5.22500        1.68100        7.46000
Cl        -0.30300       -2.09900        8.26300
P          1.91800        4.26100        9.70800
P          5.20400        4.75900        9.14700
N          4.13900        1.93000       10.42100
N          5.07700        1.94700       11.41400
N          5.13300        0.78900       11.99600
N          4.21100       -0.00600       11.37800
N          2.47200        1.37700        8.51800
N          2.74600        3.34200        6.87200
N          2.82700        4.19200        5.81400
N          2.07300        3.76400        4.83500
N          1.48100        2.61200        5.26400
C          3.58500        0.71100       10.42700
C          2.54000        0.39300        9.44400
C          1.69100       -0.70200        9.39800
H          1.70800       -1.35700       10.05800
C          0.81800       -0.77700        8.32600
C          0.80900        0.16100        7.30200
H          0.25100        0.06900        6.56300
C          1.67000        1.23900        7.43400
C          1.90500        2.35300        6.51300
C          4.06400       -1.39500       11.75800
C          3.84500       -1.70300       13.09000
H          3.81100       -1.03200       13.73400
C          3.67700       -3.02800       13.44100
H          3.53300       -3.24900       14.33400
C          3.72100       -4.04000       12.48900
C          3.97700       -3.70100       11.15700
H          4.03600       -4.37100       10.51600
C          4.14400       -2.37200       10.77900
H          4.30500       -2.14500        9.89100
C          3.51600       -5.49000       12.89200
H          4.31700       -5.98700       12.71300
H          2.78800       -5.86300       12.38800
H          3.31100       -5.53500       13.83000
C          0.62700        1.87500        4.33900
C          1.16800        0.87900        3.60600
H          2.05400        0.62700        3.73600
C          0.38600        0.22500        2.65300
H          0.75400       -0.47400        2.16100
C         -0.91900        0.59800        2.42700
C         -1.43900        1.53300        3.21500
H         -2.34100        1.74800        3.12800
C         -0.66900        2.20900        4.18000
H         -1.05000        2.87800        4.70100
C         -1.74200       -0.09300        1.34600
H         -2.65900       -0.14600        1.62800
H         -1.40100       -0.97900        1.20200
H         -1.68600        0.40900        0.53100
C          1.90800        4.49800       11.54700
H          0.99600        4.68300       11.82000
H          2.16600        3.65800       11.95800
C          2.80000        5.59300       12.11400
H          2.71000        5.59000       13.08000
H          2.47400        6.44900       11.79400
C          4.28700        5.48200       11.76700
H          4.54600        4.54900       11.81800
H          4.79600        5.96300       12.43800
C          4.67700        6.03100       10.35600
H          5.39800        6.67200       10.46500
H          3.91500        6.50700        9.99100
C          0.32400        3.38600        9.43200
C         -0.48500        3.69300        8.33000
H         -0.25900        4.40700        7.77800
C         -1.62900        2.93700        8.05100
H         -2.16500        3.14100        7.31800
C         -1.95400        1.86200        8.89600
H         -2.70700        1.34800        8.71900
C         -1.16800        1.56600        9.97600
H         -1.39700        0.85500       10.53000
C         -0.03700        2.31700       10.25200
H          0.48600        2.10700       10.99100
C          1.49000        5.92200        9.04100
C          2.17700        6.49400        7.98900
H          2.89900        6.04200        7.61400
C          1.80500        7.73800        7.48200
H          2.28100        8.11100        6.77600
C          0.74400        8.40900        8.01900
H          0.49500        9.23600        7.67600
C          0.04000        7.85400        9.07700
H         -0.68300        8.31000        9.44400
C          0.41000        6.61900        9.59100
H         -0.06300        6.25300       10.30300
C          5.89300        5.72400        7.71900
C          6.14100        7.09700        7.79100
H          5.84000        7.59100        8.51900
C          6.84600        7.72100        6.75100
H          7.00200        8.63800        6.79300
C          7.31300        7.00700        5.67100
H          7.81000        7.42900        5.00500
C          7.03700        5.67800        5.58900
H          7.33200        5.19000        4.85400
C          6.31800        5.03900        6.59600
H          6.12100        4.13400        6.51200
C          6.81700        4.20600        9.88200
C          7.36200        4.80000       11.00100
H          6.89600        5.48500       11.42400
C          8.59600        4.39800       11.51400
H          8.94300        4.81200       12.27100
C          9.28200        3.41100       10.91300
H         10.09800        3.12700       11.25700
C          8.76300        2.83000        9.78700
H          9.24000        2.15200        9.36400
C          7.54400        3.22800        9.26300
H          7.21900        2.83000        8.48900
Cl         8.65700        0.62400        1.83600
O          2.43600        1.62600       13.15200
H          2.64900        1.54400       13.93500
H          1.87200        1.02700       12.94900
