105
C:\Users\Javier\OneDrive - Universitat de Barcelona\Tesi\4 - Contribucions\Treballs\3-PhD\chapter_1\cif\pc4p\AGIJAC.pc4p.pdb
Ru        10.02400        2.94500        3.42300
S          8.47400        1.10800        3.52000
P          9.98500        2.75100        1.09900
P         12.13200        2.02500        3.62700
N         10.87800        4.86400        3.68800
N          9.94600        3.21700        5.54300
N          7.94500        3.58500        3.51700
N          6.05000        2.19600        4.00900
C         11.29400        5.70300        2.73400
H         11.22200        5.42300        1.85000
C         11.81700        6.94500        2.96900
H         12.09800        7.48700        2.26700
C         11.91600        7.36800        4.26900
H         12.28100        8.20000        4.46900
C         11.47000        6.54400        5.27100
H         11.51800        6.82300        6.15600
C         10.95300        5.30700        4.97200
C         10.45400        4.39400        5.99600
C          9.96700        3.77200        8.24500
H          9.97400        3.95600        9.15600
C          9.45400        2.60200        7.79100
H          9.10300        1.97600        8.38600
C          9.46000        2.35000        6.42400
H          9.11300        1.54500        6.11500
C         10.47400        4.67700        7.35900
H         10.82900        5.48100        7.66400
C          7.34700        2.39500        3.71200
C          5.29500        3.29600        4.02100
C          3.83900        3.09900        4.38600
H          3.72800        3.21400        5.33300
H          3.56300        2.21500        4.13500
H          3.30300        3.74600        3.92200
C          5.81500        4.54600        3.76200
H          5.25500        5.29000        3.75200
C          7.16500        4.69400        3.51700
C          7.79400        6.01800        3.28400
H          8.38200        6.22700        4.01400
H          7.11100        6.69100        3.22300
H          8.29400        5.99500        2.46700
C          8.62100        3.76900        0.41700
C          7.30100        3.28700        0.53500
H          7.14100        2.44400        0.89400
C          6.24200        4.07600        0.11500
H          5.37200        3.76300        0.20500
C          6.46500        5.31400       -0.43300
H          5.74600        5.83400       -0.70800
C          7.75700        5.79300       -0.58100
H          7.91100        6.62800       -0.96100
C          8.82500        5.00200       -0.15100
H          9.69400        5.32000       -0.25100
C          9.64600        1.13100        0.29100
C          9.12500        1.09500       -1.00300
H          8.88700        1.89000       -1.42300
C          8.96100       -0.09500       -1.66700
H          8.58900       -0.10300       -2.51900
C          9.34300       -1.27800       -1.07600
H          9.25900       -2.08000       -1.53800
C          9.85300       -1.26600        0.20800
H         10.09800       -2.06600        0.61800
C         10.00000       -0.07000        0.88200
H         10.34300       -0.07200        1.74700
C         11.41700        3.29400        0.04500
H         11.06800        3.55600       -0.82300
H         11.80400        4.08500        0.45100
C         12.53900        2.28300       -0.18500
H         12.22100        1.62400       -0.82300
H         13.28000        2.75000       -0.60200
C         12.34300        0.22100        3.86700
C         11.31100       -0.57200        4.31800
H         10.49100       -0.18000        4.51000
C         11.46200       -1.93300        4.49400
H         10.75400       -2.43800        4.82500
C         12.64600       -2.54700        4.18400
H         12.73600       -3.47000        4.25300
C         13.70800       -1.76100        3.76800
H         14.53200       -2.15700        3.60200
C         13.56600       -0.41300        3.59500
H         14.28700        0.09100        3.29400
C         13.02300        2.65800        5.10600
C         12.96000        1.97900        6.30700
H         12.51300        1.16600        6.35800
C         13.56900        2.51400        7.44600
H         13.52300        2.06000        8.25500
C         14.22400        3.70100        7.36500
H         14.62900        4.05200        8.12600
C         14.29800        4.37500        6.20700
H         14.75500        5.18600        6.17200
C         13.69000        3.86500        5.05200
H         13.73400        4.33800        4.25300
C         13.33100        2.39300        2.28500
H         13.26700        3.33200        2.05000
H         14.23000        2.22800        2.60700
C         13.08100        1.53800        1.02400
H         13.91600        1.11400        0.77200
H         12.45500        0.83200        1.25300
P         10.99500        8.62000       -0.83300
F         11.42600        7.13900       -0.59100
F         12.23100        9.06000       -0.00500
F         10.58900       10.09600       -1.02500
F          9.74500        8.17900       -1.63800
F         10.11500        8.47000        0.44900
F         11.87300        8.74800       -2.10100
O         12.14400        5.22100       -2.80700
H         12.56900        5.06000       -2.38400
H         11.74200        5.56800       -3.38100
