126
C:\Users\Javier\OneDrive - Universitat de Barcelona\Tesi\4 - Contribucions\Treballs\3-PhD\chapter_1\cif\pc4p\AJUHIX.pc4p.pdb
Ru         4.88000        5.89900        2.76400
Cl         2.47100        6.31300        2.28500
S          5.84300        8.02700        2.15700
P          6.98600        4.98800        3.11100
P          4.65200        6.70200        4.94100
O         -3.62600       13.02800       -0.83000
O         -2.34200       13.53600       -2.49500
N         -2.57400       12.93200       -1.45700
N          2.67300        9.89300        0.73600
N          3.49500        8.94600        1.31700
H          3.17600        8.17300        1.51600
N          5.21600       10.45000        1.29600
H          4.64300       11.02400        0.95500
N          4.15500        3.92300        2.92600
N          4.86000        5.30400        0.72000
C          0.42100       10.44500        0.15600
C         -0.88500       10.36300        0.59100
H         -1.10700        9.72400        1.25900
C         -1.87700       11.17200        0.09400
H         -2.76700       11.12900        0.42500
C         -1.52700       12.04600       -0.90900
C         -0.23700       12.14700       -1.42100
H         -0.03700       12.75000       -2.12600
C          0.73000       11.35200       -0.87900
H          1.62200       11.41000       -1.20200
C          1.41600        9.59200        0.78600
H          1.13800        8.80300        1.23800
C          4.78500        9.22400        1.56800
C          6.57300       10.89700        1.52800
H          6.75500       10.90700        2.49000
H          6.68700       11.79900        1.16400
H          7.19800       10.28400        1.08400
C          7.31900        3.82200        1.72900
C          6.99100        2.46900        1.80200
H          6.68200        2.10900        2.62400
C          7.11100        1.64800        0.70400
H          6.88800        0.72700        0.77500
C          7.55600        2.16400       -0.50500
H          7.63100        1.59800       -1.26600
C          7.89200        3.50800       -0.59800
H          8.19700        3.86600       -1.42500
C          7.78500        4.32400        0.51000
H          8.03200        5.24000        0.44400
C          8.59800        5.88100        3.20300
C          8.73300        7.24700        3.42000
H          7.95600        7.78700        3.50100
C          9.99600        7.83600        3.51800
H         10.07300        8.77500        3.64700
C         11.13000        7.05800        3.43000
H         11.98900        7.45800        3.49800
C         11.01100        5.70300        3.24100
H         11.79300        5.16400        3.20600
C          9.77200        5.11300        3.10400
H          9.71100        4.17900        2.93900
C          7.18500        3.86800        4.57100
H          6.33400        3.37600        4.69100
H          7.87900        3.19900        4.34600
C          7.55800        4.48800        5.92200
H          7.85400        3.75900        6.52200
H          8.33400        5.08600        5.78000
C          4.25700        8.50600        4.99200
C          2.93900        8.93600        4.82800
H          2.24300        8.29800        4.72200
C          2.64200       10.29500        4.82100
H          1.74500       10.58400        4.70600
C          3.64800       11.22100        4.97900
H          3.44200       12.14800        4.96600
C          4.95500       10.81100        5.15400
H          5.64500       11.45500        5.27700
C          5.25500        9.46000        5.15400
H          6.15700        9.17900        5.26300
C          3.33000        6.07800        6.07700
C          2.17400        5.48400        5.58700
H          2.07500        5.34700        4.65300
C          1.15300        5.08500        6.45800
H          0.36700        4.67900        6.10900
C          1.27500        5.27300        7.81200
H          0.58100        4.99700        8.39800
C          2.42500        5.87100        8.31700
H          2.51700        6.00600        9.25300
C          3.43900        6.27100        7.46100
H          4.21800        6.68100        7.81700
C          6.12700        6.65200        6.03200
H          6.90800        6.96800        5.51100
H          5.98600        7.29400        6.77200
C          6.47800        5.28300        6.64200
H          6.76800        5.42500        7.57800
H          5.65400        4.73400        6.66800
C          3.83900        3.21600        4.01400
H          3.98300        3.60500        4.86900
C          3.30700        1.93300        3.94700
H          3.09100        1.47000        4.75000
C          3.09400        1.32800        2.74000
H          2.72500        0.45400        2.69300
C          3.42900        2.02700        1.56900
C          3.95400        3.32200        1.71100
C          3.26000        1.47200        0.26900
H          2.88900        0.60200        0.17500
C          5.21800        5.99500       -0.36800
H          5.56500        6.87200       -0.25500
C          5.10400        5.48900       -1.65000
H          5.38400        6.01400       -2.39100
C          4.59000        4.23100       -1.85800
H          4.52100        3.87400       -2.73600
C          4.16800        3.47900       -0.73900
C          4.33100        4.06400        0.53400
C          3.62000        2.16700       -0.83800
H          3.50500        1.77300       -1.69400
P          2.02500        0.75500       12.85100
F          2.82600       -0.61400       12.75400
F          0.79800       -0.00300       13.55000
F          1.39500        0.45800       11.42200
F          1.17300        2.11200       12.93100
F          2.62900        1.03500       14.28300
F          3.22800        1.51700       12.17300
Cl        12.62600        3.91800        0.55100
Cl        11.46200        1.30000        0.14000
C         11.36900        2.92000       -0.08300
H         10.51300        3.40500        0.02800
H         11.52000        2.80800       -1.05400
Cl        11.76700        1.92300        4.31400
Cl        10.27000        2.07800        6.74200
C         10.71200        1.10300        5.37900
H         11.15200        0.27600        5.70000
H          9.89400        0.84200        4.88800
Cl        10.92300        1.64700        1.04200
