69
C:\Users\Javier\OneDrive - Universitat de Barcelona\Tesi\4 - Contribucions\Treballs\3-PhD\chapter_1\cif\pc4p\ALECOJ.pc4p.pdb
Ru         5.83900        7.57900       10.98800
P          6.68800        8.60000        9.17800
P          3.71200        7.77300       10.29200
C          5.62200        6.80400       13.08100
H          4.95000        6.16500       13.39800
C          6.93100        6.49200       12.60700
H          7.31200        5.59300       12.53400
C          7.61200        7.68800       12.35700
H          8.54900        7.76900       12.08100
C          6.74500        8.75500       12.67300
H          6.97600        9.70800       12.65000
C          5.52400        8.21700       13.11300
H          4.75900        8.73000       13.44900
C          2.48400        7.06800       11.48200
C          1.65600        7.85300       12.26300
H          1.69000        8.77800       12.17800
C          0.76800        7.28300       13.17200
H          0.23200        7.82900       13.69900
C          0.68200        5.92700       13.29200
H          0.08600        5.54300       13.89300
C          1.49400        5.12700       12.50300
H          1.43800        4.20200       12.57600
C          2.38200        5.69000       11.61800
H          2.92300        5.13800       11.10000
C          7.28500       10.33400        9.46000
C          8.46700       10.54600       10.16400
H          8.98500        9.81900       10.42300
C          8.88000       11.83700       10.48500
H          9.66700       11.96800       10.96400
C          8.12800       12.91500       10.09300
H          8.40000       13.77700       10.31300
C          6.97400       12.72400        9.38100
H          6.47200       13.45700        9.11000
C          6.55200       11.44400        9.06300
H          5.76800       11.32600        8.57600
C          3.01900        9.46500       10.03800
C          3.70600       10.55500       10.54200
H          4.50700       10.42100       10.99400
C          3.22000       11.85000       10.38400
H          3.68700       12.56900       10.74400
C          2.05700       12.06700        9.69800
H          1.74400       12.93300        9.57500
C          1.35000       10.99700        9.19000
H          0.55300       11.14400        8.73400
C          1.81600        9.71100        9.35800
H          1.32700        8.99700        9.01700
C          8.21100        7.85000        8.43700
C          8.76800        6.70100        8.99000
H          8.37800        6.31400        9.74000
C          9.90800        6.12700        8.42200
H         10.28400        5.37000        8.80900
C         10.47800        6.67200        7.30000
H         11.22300        6.27200        6.91400
C          9.94200        7.81400        6.74600
H         10.33000        8.19000        5.98900
C          8.82900        8.39900        7.31600
H          8.48300        9.17700        6.94200
C          5.64400        8.81800        7.67700
H          4.91400        9.42000        7.89400
H          6.17800        9.24300        6.98900
C          5.05500        7.52900        7.10500
H          5.53600        6.77200        7.47500
H          5.18800        7.52300        6.14400
C          3.55300        7.35600        7.40000
H          3.12000        8.21200        7.25400
H          3.19100        6.73700        6.74700
C          3.15800        6.86600        8.77100
H          3.47300        5.95200        8.85100
H          2.18900        6.83200        8.79400
