83
C:\Users\Javier\OneDrive - Universitat de Barcelona\Tesi\4 - Contribucions\Treballs\3-PhD\chapter_1\cif\pc4p\BEDPIJ.pc4p.pdb
Rh         0.21600       -0.34400        6.58300
P          0.74700       -0.13800        4.33600
P          1.12300       -2.50400        6.63100
F         -1.12700       -1.51300       18.96400
F         -1.38900       -3.01600       20.29800
F         -1.38300       -0.85700       20.92400
F         -2.96900       -1.64600       19.79000
C          2.49200       -0.48600        3.79900
C          3.42700       -1.04700        4.84500
C          3.39100       -2.57100        4.97000
C          2.02400       -3.16600        5.16700
C          0.45500        1.48400        3.53700
C         -0.61900        1.74100        2.72600
C         -0.77400        2.99800        2.14000
C          0.09400        3.97700        2.33600
C          1.17800        3.75200        3.13800
C          1.37700        2.52400        3.75900
C         -0.34200       -1.25000        3.38700
C         -1.50300       -1.71400        3.98500
C         -2.37100       -2.58300        3.30300
C         -2.05700       -2.98300        2.03300
C         -0.91200       -2.52200        1.42200
C         -0.07000       -1.64100        2.08300
C         -0.17000       -3.77700        6.92000
C         -0.72100       -4.45700        5.85500
C         -1.77400       -4.97600        6.12000
C         -2.22300       -5.54700        7.41300
C         -1.62100       -4.90600        8.43400
C         -0.61500       -4.02400        8.21000
C          2.35900       -2.87400        7.91700
C          2.64100       -4.18700        8.25800
C          3.70100       -4.48600        9.09500
C          4.36500       -3.47500        9.78300
C          4.22500       -2.18100        9.27300
C          3.14800       -1.86000        8.43800
C         -0.00900        1.83200        6.96300
C         -1.13800        1.40600        6.39000
C         -2.45700        1.06600        7.06000
C         -2.34400        0.26800        8.27300
C         -1.17100       -0.66800        8.34600
C          0.03300       -0.35000        8.82900
C          0.47600        1.01700        9.31200
C          0.16800        2.12800        8.43400
B         -1.85200       -1.78600       20.07500
H         -1.26000        1.04200        2.56200
H         -1.54200        3.14200        1.55400
H         -0.04200        4.84300        1.91000
H          1.79400        4.48000        3.24200
H          2.12200        2.40400        4.36100
H         -1.73100       -1.43100        4.89100
H         -3.16000       -2.92200        3.71300
H         -2.62400       -3.61600        1.57100
H         -0.73100       -2.80700        0.50800
H          0.69700       -1.26600        1.61700
H         -0.41400       -4.30900        4.93700
H         -2.19100       -5.83500        5.40700
H         -2.96600       -6.13200        7.60600
H         -1.92400       -5.05500        9.38800
H         -0.17200       -3.57600        8.95900
H          2.07100       -4.91900        7.91100
H          3.90900       -5.42200        9.33300
H          5.27100       -3.65100       10.14500
H          4.79700       -1.45000        9.63000
H          2.96600       -0.92200        8.23500
H          2.85400        0.32300        3.43000
H          2.44500       -1.12800        3.06400
H          3.19200       -0.66700        5.70000
H          4.33200       -0.76700        4.65400
H          3.93400       -2.83000        5.71000
H          3.77900       -2.92900        4.17100
H          2.08900       -4.12200        5.24600
H          1.48600       -2.99200        4.37200
H          0.77300        1.92500        6.40500
H         -1.09000        1.30300        5.41800
H         -3.01200        0.53500        6.40300
H         -2.96700        1.86200        7.20600
H         -3.16100       -0.22500        8.42800
H         -2.25600        0.89500        9.00700
H         -1.31600       -1.57200        7.98800
H          0.70400       -1.05900        8.86900
H          1.42700        1.02300        9.45900
H          0.06100        1.18000       10.18100
H          0.82200        2.81500        8.53600
