87
C:\Users\Javier\OneDrive - Universitat de Barcelona\Tesi\4 - Contribucions\Treballs\3-PhD\chapter_1\cif\pc4p\BOMJUK.pc4p.pdb
C          7.53900        2.79800        5.95700
C          7.42900        1.25500        5.94400
C          8.02300        0.63700        7.22100
C         10.30700        4.16500       10.61100
C         11.06100        5.43900       10.72200
C         12.03900        5.73300        9.60900
C         11.37100        6.22400        8.25900
C          8.03600        0.66000        4.69400
C          5.91600        0.95400        5.99100
C          8.15000        5.21600        9.04800
C          7.78500        5.76100        7.83700
C          6.95600        6.88000        7.74100
C          6.49900        7.46000        8.91600
C          6.84500        6.93800       10.13500
C          7.65400        5.82500       10.21600
C          8.15900        2.52400        9.97900
C          6.79900        2.65400       10.08200
C          6.04000        1.69100       10.70200
C          6.62600        0.54900       11.19600
C          7.98100        0.41100       11.09000
C          8.78700        1.37800       10.51100
C         10.88800        5.77700        5.47100
C         10.07400        6.90300        5.49900
C          9.58400        7.47500        4.30300
C          9.94500        6.93000        3.10500
C         10.75000        5.82900        3.05800
C         11.22000        5.25100        4.23700
C         13.29500        4.91300        6.71300
C         14.05400        3.76700        6.80800
C         15.42500        3.80800        6.71000
C         16.08000        5.00300        6.51900
C         15.33000        6.14500        6.39100
C         13.96300        6.10300        6.47200
Ru        10.36200        2.93200        7.32700
P          9.26900        3.75500        9.14000
P         11.46200        4.90600        6.98300
Cl        11.59200        1.89100        5.39400
Cl        11.98500        1.96000        8.85100
N          9.45800        0.93400        7.39900
N          8.93100        3.29900        5.79600
H          7.11000        3.29900        6.89200
H          7.08000        3.25700        4.99600
H          9.35600        0.71000        4.79100
H          7.82900       -0.35500        4.60000
H          7.60700        0.87700        4.37900
H          5.37600        1.46200        6.53900
H          5.42700        1.42000        5.29000
H          5.62900        0.00000        6.02500
H          7.87400       -0.29200        7.25900
H          7.51000        0.87700        8.00900
H          8.12800        5.36600        7.12700
H          7.31200        7.74600        6.93600
H          5.98400        8.18500        8.81700
H          6.69600        7.41200       10.90400
H          8.00000        5.49100       11.11000
H          6.41000        3.40300        9.91900
H          5.05700        1.83700       10.56600
H          8.38200       -0.12500       11.40300
H         10.80300        3.54900       10.66900
H          9.63600        4.17600       11.53600
H         10.28200        6.28500       11.09500
H         11.56900        5.47000       11.63900
H         12.31800        4.65600        9.46400
H         12.44000        6.47200        9.69900
H         11.88800        6.76500        7.92100
H         10.43500        6.45200        8.34700
H          9.82300        7.26600        6.33400
H          9.48300        7.14100        2.43900
H         11.02500        5.38700        2.45400
H         11.76100        4.36400        4.15900
H         13.71900        3.11100        6.89200
H         16.99400        5.01100        6.56900
H         15.66400        6.76500        6.37800
H         13.57500        6.93200        6.48100
H          9.65700        0.45900        8.15600
H          9.97400        0.50100        6.61300
H          8.94800        4.40500        5.51100
H          9.34900        3.00700        5.14300
C         -0.50900       -0.24400       12.65800
H          0.20600        0.40500       12.53500
H         -0.88800       -0.42800       11.78700
Cl        -1.59800        0.38200       13.56100
Cl         0.12400       -1.56800       13.21700
H          8.17900        6.57700        2.16000
H         15.87400        4.40500        6.90700
H          8.12200        0.00000        8.78800
H         10.04800       -0.02100        9.47800
