183
C:\Users\Javier\OneDrive - Universitat de Barcelona\Tesi\4 - Contribucions\Treballs\3-PhD\chapter_1\cif\pc4p\CISTAC.pc4p.pdb
Ru         8.08200       17.20100        3.99500
P          7.35000       18.46300        5.81800
P          7.18100       18.51800        2.35800
S         10.53800       16.66200        5.17300
O         10.13600       17.79100        4.22500
O          9.19900       15.94500        5.35600
O         11.00000       17.19900        6.44800
O         11.50100       15.81000        4.53800
N          6.43400       16.00500        3.82400
N          8.71300       15.81200        2.57000
C          5.61200       20.70800        3.28700
H          4.70300       20.99600        3.46100
H          6.00900       21.35100        2.68000
C         10.38700       21.12600        6.67000
H         11.11500       21.49200        6.21700
C          6.38000       20.74800        4.58700
H          6.24200       21.61500        5.00100
H          7.32600       20.66400        4.39100
C          8.50800       19.60000        6.66500
C          4.19500       15.26100        4.31100
H          3.37800       15.43500        4.72200
C          8.21200       19.78800        1.54700
C          6.79100       17.41800        7.22100
C          5.57900       13.87300        2.99600
H          5.71500       13.08700        2.52100
C          5.99200       19.66300        5.59600
H          5.19900       19.19900        5.28000
H          5.78100       20.07500        6.44800
C          7.89500       14.76200        2.36500
C          5.56300       19.38200        2.60400
H          5.15100       19.50500        1.73600
H          4.98400       18.79900        3.11900
C          9.89700       15.82700        1.91400
H         10.47400       16.54600        2.03700
C          6.75600       17.50100        0.89800
C          8.20000       20.01500        8.02200
H          7.47200       19.65300        8.47400
C          5.46800       17.24100        7.52700
H          4.81300       17.66300        7.02000
C          7.72600       20.57200        0.53900
H          6.82600       20.50900        0.31300
C         10.38000       20.79700        1.15300
H         11.28700       20.86600        1.34600
C          5.22700       16.19300        4.39600
H          5.07600       16.98100        4.86600
C          7.68300       17.30200       -0.14700
H          8.48400       17.77400       -0.14000
C         10.27200       14.80100        1.07000
H         11.09200       14.82000        0.63200
C          7.74300       16.71200        7.94300
H          8.64500       16.79300        7.73000
C          4.37800       14.10500        3.63700
H          3.69800       13.47000        3.60600
C         10.11000       21.52500        7.94800
H         10.64300       22.16700        8.36200
C          9.01500       20.96400        8.63600
H          8.83400       21.23200        9.51000
C          6.61700       14.86400        3.07700
C          9.58200       19.92700        1.86300
H          9.95000       19.42800        2.55600
C          8.53900       21.46500       -0.16600
H          8.18400       21.98400       -0.85200
C          9.58200       20.17200        6.03900
H          9.78600       19.91500        5.16700
C          5.10500       16.43200        8.58900
H          4.20500       16.35700        8.81200
C          8.19600       13.70900        1.52700
H          7.60200       13.00600        1.40500
C          9.39900       13.74100        0.88600
H          9.63600       13.04100        0.31800
C          9.82400       21.56700        0.15200
H         10.36100       22.16900       -0.30800
C          5.26700       15.91700       -0.22500
H          4.45200       15.47200       -0.27700
C          6.00400       15.76200        9.30200
H          5.73800       15.21700       10.00700
C          7.43200       16.44100       -1.16500
H          8.05700       16.32100       -1.84300
C          5.56200       16.80000        0.84500
H          4.93800       16.91000        1.52500
C          6.24100       15.74700       -1.18200
H          6.08900       15.13700       -1.86800
C          7.34500       15.88900        8.97600
H          7.98200       15.41400        9.45800
Ru         6.82100        9.52500        3.60300
P          7.63200        8.20000        5.29000
P          7.57600        8.24800        1.80400
S          4.41600       10.08300        2.34700
O          5.75500       10.80700        2.20500
O          4.78000        8.94700        3.26800
O          3.98600        9.57100        1.07000
O          3.42300       10.94700        2.96400
N          8.48700       10.69900        3.82400
N          6.17800       10.92300        5.02000
C          8.00800        9.21700        6.74900
C          6.35900        7.24700        0.84000
C          8.81600        6.93200        2.08600
H          9.00600        6.48700        1.24300
H          9.64100        7.33300        2.40100
C          8.38300        9.25900        0.48700
C          6.49000        6.97900        6.04400
C          4.54600        5.65700        0.76100
H          3.91300        5.14900        1.21400
C          9.29700        9.81500        6.85900
H          9.96200        9.62700        6.23700
C          7.11100        9.44600        7.74000
H          6.29100        9.01000        7.71100
C          5.14900        6.92100        5.65900
H          4.84400        7.46100        4.96700
C          6.44600        7.14300       -0.52900
H          7.08400        7.63300       -0.99400
C          4.70800        5.30000        7.32900
H          4.09700        4.76600        7.78400
C          6.93600        6.13700        7.07700
H          7.82900        6.14800        7.33400
C          5.38800        6.52800        1.47400
H          5.28100        6.61400        2.39400
C          9.11600        5.89600        4.39400
H         10.01900        5.59800        4.20500
H          8.71700        5.25800        5.00600
C         10.54000       12.58600        4.06600
H         11.21600       13.22200        4.12000
C          7.03800       11.94200        5.27000
C          9.27800       12.79800        4.68000
H          9.10700       13.58600        5.14300
C          9.53900       10.69600        7.93300
H         10.35200       11.14200        7.99200
C          8.31100       11.83100        4.58200
C          5.01000       10.88200        5.66900
H          4.41600       10.18200        5.51700
C          9.19000        7.26900        5.09600
H          9.81000        7.82500        4.59900
H          9.57000        7.13400        5.97800
C          9.68800        9.12900        0.13200
H         10.22700        8.51600        0.57500
C          9.40800       10.84200       -1.53200
H          9.75600       11.38100       -2.20500
C         10.72800       11.41300        3.39500
H         11.53900       11.24100        2.97400
C          4.28900        6.08600        6.28800
H          3.40200        6.04800        6.01200
C          6.04600        5.29900        7.70800
H          6.34000        4.73100        8.38400
C          4.67500       11.92500        6.59900
H          3.85500       11.90500        7.03800
C          9.70100       10.50100        3.30000
H          9.85900        9.70400        2.84700
C          4.65600        5.55900       -0.59200
H          4.10100        4.98400       -1.06700
C          8.33000        5.88800        3.11400
H          7.39700        6.06000        3.31700
H          8.38900        5.00500        2.71700
C          5.56200        6.28700       -1.22900
H          5.61700        6.23400       -2.15700
C          7.60800       10.21600       -0.19600
H          6.71800       10.33500        0.04200
C          7.37800       10.31600        8.80700
H          6.72100       10.48000        9.44600
C          6.71100       12.94400        6.17600
H          7.30800       13.64000        6.32300
C          8.55300       10.90300        8.91500
H          8.73300       11.45400        9.64200
C          8.13700       10.96800       -1.19500
H          7.59900       11.57800       -1.64500
C         10.23500        9.92100       -0.90100
H         11.12500        9.82600       -1.15300
C          5.53400       12.92300        6.84400
H          5.32700       13.58800        7.46100
C          1.94500        3.20800        8.65300
H          2.27400        3.88500        9.24800
H          1.08800        2.90100        8.95900
H          1.85800        3.57200        7.76900
O          2.84200        2.16100        8.62900
H          2.43400        1.47100        8.80700
O          4.84200        2.21200       10.16100
H          5.38100        1.65400       10.57700
H          3.92300        2.16900        9.94300
O         13.15700        5.50100       23.24700
H         13.18800        5.27100       24.03500
C         12.81200        6.90900       23.13400
H         11.92800        7.05300       22.79200
H         13.45300        7.32600       22.55200
H         12.88200        7.29800       24.01100
