119
C:\Users\Javier\OneDrive - Universitat de Barcelona\Tesi\4 - Contribucions\Treballs\3-PhD\chapter_1\cif\pc4p\COJKIX.pc4p.pdb
Ru         1.97000        6.97900        4.64200
P          0.83600        5.58000        3.30500
P          0.15000        8.20100        5.30800
F          6.28100        9.79800        6.31300
F          4.52000       10.04500        7.45800
F          5.46900        8.22500        7.39700
O          3.13500        8.24100        5.92400
N          2.20300        5.83200        6.53900
N          3.73700        5.97000        4.36500
C         -0.25800        6.25100        1.96700
C         -1.64200        6.76600        2.35900
C         -1.72500        8.08100        3.12900
C         -1.55300        7.94700        4.65400
C          4.29400        8.83000        5.51600
C          5.12000        9.21800        6.64800
C          3.17500        4.74000        6.35400
C          4.15700        5.07300        5.27400
C          5.40100        4.47900        5.15000
C          6.19100        4.81000        4.06000
C          5.74600        5.73200        3.14200
C          4.50100        6.33100        3.31300
C          2.03700       10.35900        0.03800
C          2.61600        7.85800        2.89300
C          2.05900        8.83400        2.04400
C          2.68000        9.29000        0.88200
C          3.92000        8.77500        0.52800
C          4.51900        7.82800        1.32700
C          3.89000        7.36100        2.47400
C         -0.10700        7.87800        7.10700
C          0.90000        8.30900        7.98200
C          0.88600        7.94700        9.31900
C         -0.11600        7.14100        9.81900
C         -1.12000        6.72000        8.97300
C         -1.13100        7.09100        7.63600
C          0.27100       10.04300        5.35200
C         -0.70500       10.83300        5.97100
C         -0.54400       12.20900        6.04500
C          0.56800       12.81200        5.50700
C          1.53400       12.05000        4.90800
C          1.38500       10.66800        4.83500
C          1.96800        4.54100        2.29800
C          2.59200        3.43300        2.87800
C          3.54800        2.70800        2.18600
C          3.88700        3.06100        0.89300
C          3.28000        4.14900        0.30000
C          2.33500        4.88600        1.00200
C         -0.26300        4.28600        4.01000
C         -0.63700        3.15200        3.28600
C         -1.51400        2.23800        3.83400
C         -2.04100        2.43100        5.08700
C         -1.68300        3.53400        5.81400
C         -0.78400        4.45200        5.28500
H          2.49400        6.39400        7.20700
H          1.39000        5.48300        6.79100
H          0.22600        6.99200        1.52400
H         -0.38200        5.53800        1.29100
H         -2.17400        6.86600        1.53000
H         -2.08100        6.06600        2.90400
H         -2.60300        8.50000        2.94700
H         -1.02500        8.69200        2.78500
H         -1.85600        7.04300        4.92100
H         -2.15400        8.60200        5.09200
H          4.08300        9.63200        4.97600
H          4.79900        8.19900        4.94300
H          2.69300        3.90800        6.11800
H          3.65900        4.58200        7.20400
H          5.70700        3.85800        5.79900
H          7.04000        4.39900        3.94800
H          6.28600        5.95800        2.39300
H          1.06200       10.27900        0.09800
H          2.31600       10.25100       -0.89400
H          2.31300       11.24200        0.36100
H          1.21400        9.20000        2.27400
H          4.35300        9.07500       -0.26300
H          5.37500        7.48900        1.09300
H          1.60300        8.85900        7.65400
H          1.57300        8.25600        9.89700
H         -0.11400        6.88300       10.73300
H         -1.81300        6.16500        9.31000
H         -1.84400        6.80600        7.07600
H         -1.47900       10.42600        6.34100
H         -1.20900       12.73900        6.47000
H          0.66700       13.75600        5.55200
H          2.30600       12.46400        4.54200
H          2.06300       10.14700        4.42200
H          2.35600        3.17200        3.76100
H          3.97100        1.96500        2.60100
H          4.53600        2.55900        0.41600
H          3.50800        4.39300       -0.59100
H          1.93200        5.64000        0.58800
H         -0.28800        3.00900        2.41500
H         -1.75500        1.46400        3.33900
H         -2.65400        1.80100        5.44800
H         -2.04800        3.67100        6.68100
H         -0.52300        5.20300        5.80600
C          4.81500       12.65000        1.90400
C          4.95400       11.46700        2.56400
C          6.14000       11.09600        3.04700
C          7.22800       11.89400        2.87600
C          7.07100       13.09300        2.18700
C          5.87200       13.43200        1.72000
H          3.96400       12.91600        1.57600
H          4.20000       10.90100        2.68100
H          6.22500       10.27100        3.51300
H          8.07600       11.63800        3.22000
H          7.81600       13.66700        2.05000
H          5.77000       14.24900        1.24600
C          0.71100        0.36600        1.07400
C         -0.13600       -0.69900        1.20300
C          0.89500        1.04600       -0.03100
H          1.20200        0.63100        1.84200
H         -0.21800       -1.18100        2.01700
H          1.52100        1.76000       -0.05500
C         -0.71100       -0.36600       -1.07400
C          0.13600        0.69900       -1.20300
C         -0.89500       -1.04600        0.03100
H         -1.20200       -0.63100       -1.84200
H          0.21800        1.18100       -2.01700
H         -1.52100       -1.76000        0.05500
