92
C:\Users\Javier\OneDrive - Universitat de Barcelona\Tesi\4 - Contribucions\Treballs\3-PhD\chapter_1\cif\pc4p\DIKYIF.pc4p.pdb
P         13.47900        0.00000        0.00000
F         14.94400        0.46500        0.18100
F         13.00000        1.50000       -0.17100
F         13.05900        0.05800        1.49700
P          6.74000        7.14100        0.00000
F          5.95700        8.26600        0.82200
F          7.88100        7.11500        1.10400
F          5.95400        6.00300        0.81700
O          2.15200        5.06400        1.08000
C          2.29600        6.03400        1.64400
C          2.58800        7.41800        1.34700
Ru         9.00900        2.60300        3.12900
Cl         9.55400        0.63000        4.38100
P          7.20500        2.86100        4.61100
P         10.43500        3.83600        4.50200
C          8.78100        1.22100        1.26400
C          7.67200        2.05500        1.36200
C          7.82300        3.45000        1.48100
C          9.08800        4.02000        1.44700
C         10.20500        3.18900        1.31800
C         10.08000        1.81800        1.28200
C          8.65200       -0.27400        1.17600
C          7.31700        2.16000        6.30700
C          8.05900        2.91700        7.39500
C          9.55000        3.17700        7.12400
C          9.82300        4.32100        6.14900
C          6.47300        4.51400        4.84900
C          6.81100        5.58000        4.02700
C          6.18100        6.79800        4.11000
C          5.21000        6.97800        5.06900
C          4.87600        5.95700        5.92700
C          5.49100        4.72900        5.82300
C          5.80600        1.91100        3.92900
C          5.89800        0.52200        3.83300
C          4.91100       -0.20900        3.20500
C          3.80700        0.43900        2.65700
C          3.68200        1.80000        2.73200
C          4.68900        2.51300        3.35800
C         10.91700        5.45600        3.79400
C         10.10400        6.55600        3.98300
C         10.42600        7.77300        3.39600
C         11.52000        7.89600        2.60300
C         12.34900        6.83200        2.42200
C         12.04600        5.59500        3.00600
C         12.05800        3.07600        4.84400
C         12.54600        2.03300        4.07900
C         13.81500        1.51400        4.31100
C         14.57800        2.00100        5.33800
C         14.10900        3.04000        6.09500
C         12.86300        3.58700        5.85700
H          6.79700        1.66600        1.34400
H          7.04200        4.01300        1.57700
H          9.18900        4.98600        1.52500
H         11.09100        3.59100        1.24100
H         10.86700        1.25500        1.26700
H          7.69300       -0.50800        1.08600
H          9.14200       -0.59500        0.38800
H          9.00400       -0.68100        1.99000
H          6.41400        2.03300        6.61700
H          7.75800        1.28700        6.22900
H          7.61700        3.78600        7.52200
H          8.00100        2.40100        8.21900
H          9.99400        3.38500        7.98700
H          9.95500        2.35800        6.74600
H          8.98700        4.81300        6.02200
H         10.47500        4.91000        6.56500
H          7.51600        5.46200        3.36000
H          6.41200        7.51700        3.51500
H          4.75600        7.83100        5.14400
H          4.20300        6.10000        6.61700
H          5.23500        4.01300        6.43600
H          6.66100        0.06500        4.21300
H          4.97100       -1.17900        3.15300
H          3.13000       -0.08700        2.22300
H          2.89700        2.25000        2.35200
H          4.62300        3.48300        3.38600
H          9.30600        6.47900        4.52300
H          9.87200        8.54500        3.56700
H         11.72000        8.73900        2.17100
H         13.13700        6.93300        1.88700
H         12.61600        4.83500        2.86900
H         11.99100        1.65500        3.36000
H         14.15100        0.80000        3.74800
H         15.43500        1.61200        5.53100
H         14.64700        3.39600        6.82400
H         12.55800        4.32600        6.38400
F         12.01400       -0.46500       -0.18100
F         13.95800       -1.50000        0.17100
F         13.89900       -0.05800       -1.49700
F          7.52200        8.26600       -0.82200
F          5.59800        7.11500       -1.10400
F          7.52500        6.00300       -0.81700
