95
C:\Users\Javier\OneDrive - Universitat de Barcelona\Tesi\4 - Contribucions\Treballs\3-PhD\chapter_1\cif\pc4p\EBESOW.pc4p.pdb
Ru         9.86900        3.76200        3.45800
S          7.49700        4.30600        3.05800
S          9.76100        5.83000        2.22800
S          9.25600        1.54800        4.17100
S          9.70100        2.34400        1.46700
P         12.10600        3.34200        3.51000
P          9.91200        4.95000        5.41800
N          7.25200        6.66300        1.70800
N          8.89200       -0.15600        2.11200
C          8.03600        5.72900        2.26300
C          7.83200        7.80000        0.97700
H          7.15700        8.15200        0.34500
H          8.60300        7.47700        0.44500
C          8.30300        8.93900        1.88500
H          7.52800        9.35000        2.32100
H          8.77100        9.61200        1.34800
H          8.91000        8.58400        2.56600
C          5.78100        6.53600        1.74600
H          5.54500        5.70900        2.23600
H          5.44500        6.44300        0.82000
C          5.08800        7.70300        2.40000
H          5.42000        7.80900        3.31600
H          4.12300        7.54000        2.41900
H          5.27200        8.51900        1.88900
C          9.22300        1.07000        2.52700
C          8.83600       -0.45900        0.68100
H          9.05400       -1.41400        0.53700
H          9.51400        0.08200        0.20300
C          7.45200       -0.16200        0.10400
H          6.78400       -0.72500        0.54800
H          7.45100       -0.35300       -0.85800
H          7.23300        0.78100        0.24800
C          8.52100       -1.22700        3.03900
H          7.75500       -1.73100        2.66600
H          8.23500       -0.82900        3.89900
C          9.67700       -2.18900        3.29500
H          9.94500       -2.60800        2.45000
H          9.39200       -2.88100        3.92600
H         10.43600       -1.69600        3.67000
C         13.12500        3.68000        2.00300
C         12.59600        4.23500        0.85300
H         11.67300        4.46200        0.81700
C         13.41200        4.46500       -0.26200
H         13.04100        4.84900       -1.04800
C         14.76400        4.13600       -0.22400
H         15.31400        4.29000       -0.98400
C         15.30800        3.58100        0.92800
H         16.23000        3.35600        0.96300
C         14.49400        3.36200        2.01900
H         14.87100        2.98600        2.80600
C         12.58400        1.58600        3.79100
C         12.60200        0.69800        2.71600
H         12.38200        1.01300        1.84700
C         12.93300       -0.62900        2.89100
H         12.93900       -1.21700        2.14600
C         13.25900       -1.11100        4.15900
H         13.49200       -2.02400        4.28100
C         13.24000       -0.24900        5.23400
H         13.45500       -0.57200        6.10100
C         12.90700        1.09000        5.05700
H         12.89700        1.67400        5.80600
C         13.13500        4.19100        4.77600
H         12.76600        3.99800        5.67500
H         14.05500        3.82800        4.74200
C         13.19200        5.72900        4.57400
H         14.13700        6.02100        4.63100
H         12.86800        5.94200        3.66300
C         10.39800        4.18100        7.02800
C         10.49500        2.79200        7.16100
H         10.39500        2.24000        6.39400
C         10.73600        2.20600        8.41600
H         10.79100        1.26100        8.49600
C         10.89300        2.99600        9.52100
H         11.04300        2.59700       10.37100
C         10.83500        4.36800        9.40800
H         10.97100        4.91300       10.17300
C         10.57700        4.96000        8.17400
H         10.52200        5.90600        8.11000
C          8.25100        5.58600        5.92300
C          7.40400        4.71600        6.62200
H          7.72200        3.86100        6.88400
C          6.09800        5.09300        6.93700
H          5.53000        4.49200        7.40400
C          5.62900        6.34800        6.56900
H          4.74400        6.61300        6.78800
C          6.46300        7.20800        5.88000
H          6.14300        8.06600        5.62600
C          7.77600        6.83700        5.55000
H          8.33600        7.43700        5.07200
C         10.88200        6.53200        5.42500
H         10.67900        6.99900        4.57700
H         10.51500        7.09200        6.15400
C         12.37400        6.53000        5.58100
H         12.58600        6.18600        6.48500
H         12.68500        7.46900        5.54500
