100
C:\Users\Javier\OneDrive - Universitat de Barcelona\Tesi\4 - Contribucions\Treballs\3-PhD\chapter_1\cif\pc4p\EBEVIT.pc4p.pdb
Ru         1.63000        1.11500        4.10900
P          2.31600       -1.02600        3.26000
P          2.43300        2.33000        2.22800
O         -0.89300        1.82500        2.85000
O         -0.22000        2.87000        5.54000
O         -0.60200       -0.27400        2.95200
O          1.67500        3.79300        5.32700
N          0.87700        0.13700        5.85100
N          3.25400        1.25400        5.49900
N          0.92600        2.83900        5.08600
C          1.21100        3.63500        0.03300
H          1.76500        3.11400       -0.50100
C          2.96800        1.27700        0.82500
H          3.32200        1.85100        0.12800
H          3.69200        0.70800        1.12900
C          1.75200       -2.36600        4.39900
C          3.90300        3.43600        2.41500
C          1.87900        0.38600        0.21000
H          1.03300        0.58000        0.64200
H          1.78900        0.60200       -0.73000
C          5.06100       -0.41900        3.18800
H          4.78200        0.46100        3.30100
C          1.25900        3.50500        1.42200
C          5.47600        1.86800        6.24100
C          1.69700       -1.72200        1.65800
H          1.92900       -2.66400        1.63800
H          0.72900       -1.66700        1.66900
C          2.18000       -1.10000        0.35200
H          3.13800       -1.23000        0.28100
H          1.76400       -1.57100       -0.38700
C          4.88600        5.46200        3.27100
H          4.79000        6.27100        3.72000
C          3.03600        0.64200        6.70000
C          0.32700        4.55300       -0.56100
H          0.29800        4.62800       -1.48700
C          1.28700       -0.49000        8.10900
H          1.86000       -0.52600        8.84100
N         -0.16700        0.88500        3.14700
C          4.11000       -1.42200        3.12700
C          2.51300       -2.72100        5.49500
H          3.34300       -2.33000        5.63500
C          5.16200        3.08200        1.93000
H          5.26700        2.28300        1.46700
C          3.79000        4.64100        3.08700
H          2.96200        4.90200        3.42100
C         -0.47500        5.32400        0.19200
H         -1.05100        5.93400       -0.20800
C          4.54900       -2.71100        2.91900
H          3.93500       -3.40600        2.84800
C          5.91700       -2.97200        2.81400
H          6.20600       -3.84600        2.67600
C          4.42600        1.88300        5.32800
H          4.54600        2.36500        4.54200
C          0.43200        4.30800        2.18000
H          0.45500        4.25000        3.10700
C          6.82700       -1.97900        2.90700
H          7.73500       -2.17400        2.85100
C          6.42000       -0.68700        3.08600
H          7.04200        0.00200        3.13700
C          0.51600       -2.98600        4.21200
H         -0.00400       -2.75800        3.47500
C          0.79100       -4.27000        6.17900
H          0.46700       -4.90200        6.77800
C          5.24800        1.20100        7.42300
H          5.92100        1.15400        8.06300
C          1.71300        0.08200        6.90600
C         -0.83800       -0.95900        7.12200
C          4.03200        0.60500        7.66400
H          3.87900        0.17700        8.47500
C         -2.21300       -1.55800        7.13900
H         -2.14600       -2.51600        7.13400
H         -2.69800       -1.26700        6.36400
H         -2.67600       -1.27400        7.93200
C          0.05300       -3.93100        5.09800
H         -0.77100       -4.33700        4.95400
C          6.12100        5.08700        2.79200
H          6.85900        5.63900        2.92200
C         -0.36000       -0.35500        5.97100
H         -0.93200       -0.28700        5.24100
C         -0.43500        5.20600        1.56100
H         -0.99700        5.73400        2.08300
C          6.25800        3.90200        2.12900
H          7.09200        3.64500        1.80700
C          0.01100       -0.99900        8.19800
H         -0.27900       -1.37400        8.99900
C          6.76600        2.55000        5.89800
H          6.91700        3.27600        6.50700
H          6.72000        2.89000        5.00200
H          7.48800        1.92100        5.96500
C          2.01600       -3.68700        6.40000
H          2.51800       -3.92900        7.14400
O         10.70000        6.07400        6.49900
H         10.78400        6.07000        5.68300
C          9.39400        6.01400        6.81500
H          9.22000        6.52500        7.62100
H          9.13100        5.09300        6.97300
C          8.62200        6.58000        5.67100
H          9.15800        6.54700        4.87700
H          8.38800        7.49100        5.86300
H          7.82200        6.06500        5.53800
