134
C:\Users\Javier\OneDrive - Universitat de Barcelona\Tesi\4 - Contribucions\Treballs\3-PhD\chapter_1\cif\pc4p\EDUCIS.pc4p.pdb
Ru         8.24800       14.29500        3.96600
S          7.15700       12.27700        4.19500
P          6.52700       15.39900        5.02400
P          9.43000       13.90900        5.93000
O          9.75200       13.33500        2.81300
O         12.18700       12.78300        1.89200
N          9.30700       11.01700        3.01100
N          7.46900        9.78000        3.53900
N          9.09500       16.16200        3.35500
N          7.39500       14.61300        2.01800
C          5.34500       14.60000        6.18500
C          5.54900       13.34800        6.74600
H          6.31900       12.87100        6.53600
C          4.62100       12.79900        7.61500
H          4.78100       11.96800        8.00000
C          3.47100       13.47500        7.90800
H          2.83400       13.09000        8.46400
C          3.25500       14.72500        7.38100
H          2.48200       15.19500        7.59800
C          4.18200       15.28000        6.53200
H          4.02900       16.12900        6.18100
C          5.34900       16.01200        3.76900
C          5.54800       17.23200        3.14000
H          6.25200       17.77800        3.40400
C          4.70800       17.64300        2.12500
H          4.85500       18.45800        1.70500
C          3.66900       16.85900        1.73800
H          3.10300       17.15100        1.06100
C          3.44800       15.64200        2.33600
H          2.73800       15.10700        2.06300
C          4.29600       15.21800        3.35100
H          4.15400       14.39100        3.75400
C          6.93000       16.92700        5.97000
H          7.63000       17.39900        5.49300
H          6.14600       17.49700        5.96800
C          7.38200       16.75600        7.41500
H          6.70900       16.22900        7.87700
H          7.39300       17.63200        7.82900
C          8.73900       16.10400        7.66100
H          9.02700       16.33400        8.55900
H          9.37700       16.49300        7.04300
C          8.79900       14.57800        7.51400
H          7.90400       14.22900        7.65100
H          9.35600       14.23000        8.22800
C         11.20800       14.41200        5.93800
C         11.91400       14.51700        7.12500
H         11.45900       14.52800        7.93500
C         13.29700       14.60500        7.10900
H         13.76500       14.66700        7.90900
C         13.97600       14.60300        5.93000
H         14.90600       14.63600        5.93200
C         13.30300       14.55500        4.74900
H         13.76800       14.58300        3.94500
C         11.91800       14.46400        4.75200
H         11.46000       14.43800        3.94300
C          9.68600       12.13200        6.38500
C          8.78900       11.44700        7.19800
H          8.06600       11.89900        7.56700
C          8.96400       10.09700        7.46400
H          8.34900        9.65000        7.99900
C         10.03300        9.42000        6.94300
H         10.14900        8.51500        7.12500
C         10.92800       10.08200        6.15600
H         11.65600        9.62500        5.80100
C         10.76200       11.42900        5.88000
H         11.38600       11.86700        5.34600
C          8.06600       11.00300        3.51900
C         10.02700       12.10000        2.76500
C         11.40700       11.76300        2.36800
C         13.43100       12.25700        1.72700
H         14.16600       12.73000        1.40800
C         13.45400       10.98500        2.07900
H         14.19100       10.41700        2.06000
C         12.13700       10.64800        2.49400
H         11.84200        9.82000        2.79500
C          6.09800        9.62700        4.03100
H          6.05500        9.96000        4.94000
H          5.87900        8.68200        4.05400
C          5.06000       10.34500        3.20100
C          5.11400       10.36700        1.82300
H          5.81600        9.94800        1.37900
C          4.12100       11.01300        1.09900
H          4.17000       11.03000        0.16900
C          3.07500       11.62500        1.73600
H          2.40900       12.04800        1.24300
C          3.01800       11.61100        3.09500
H          2.31000       12.02700        3.53200
C          4.00500       10.98100        3.83600
H          3.96000       10.98500        4.76500
C          8.29700        8.56400        3.63900
H          8.25900        8.23600        4.55200
H          9.21800        8.79900        3.45000
C          7.87900        7.45600        2.71100
C          7.42500        6.27300        3.20800
H          7.32000        6.17200        4.12700
C          7.11700        5.22200        2.37300
H          6.80300        4.42500        2.73300
C          7.27000        5.33700        1.03500
H          7.06500        4.62300        0.47500
C          7.71900        6.50000        0.52200
H          7.82700        6.58700       -0.39800
C          8.02100        7.56700        1.35400
H          8.32300        8.36600        0.98600
C          8.75700       16.57200        2.11000
C          9.21000       17.78600        1.60500
H          8.97200       18.05100        0.74600
C         10.00800       18.59100        2.37300
H         10.31600       19.40400        2.04000
C         10.35000       18.18400        3.63400
H         10.88700       18.71600        4.17600
C          9.88200       16.97600        4.08000
H         10.12400       16.70300        4.93500
C          7.85900       15.70300        1.35100
C          6.51500       13.82000        1.39600
H          6.18900       13.07400        1.84700
C          6.07100       14.06300        0.11700
H          5.45700       13.49200       -0.28400
C          6.54500       15.14900       -0.56000
H          6.25500       15.33000       -1.42500
C          7.45200       15.96500        0.05300
H          7.79600       16.70000       -0.40200
P         17.38600       13.11700        2.00300
F         18.30400       12.37700        3.04400
F         18.33700       14.25500        2.20300
F         18.30500       12.64100        0.84400
F         16.50800       11.71100        1.94100
F         16.39000       13.48800        3.23100
F         16.33400       13.72300        1.07900
F         17.67900       12.14000        3.11100
F         18.18200       14.43300        2.47500
F         18.40000       12.38500        1.05900
F         16.38100       12.31600        1.21200
F         16.47600       14.06000        2.75500
F         17.27800       14.28500        0.70800
