79
C:\Users\Javier\OneDrive - Universitat de Barcelona\Tesi\4 - Contribucions\Treballs\3-PhD\chapter_1\cif\pc4p\EJEKUZ.pc4p.pdb
W          2.09500       15.95500        3.35500
Pd         2.88100       15.94300        6.19300
P          4.06400       14.43600        7.46800
P          2.43600       17.30600        8.00800
S          3.46000       14.54600        4.37700
S          1.53800       17.40000        4.94100
S          0.40100       14.93800        2.61900
S          3.07600       16.89000        1.70300
C          5.70000       13.94300        6.80300
C          6.41000       14.76800        5.92900
H          6.01600       15.54700        5.60600
C          7.70800       14.43600        5.53400
H          8.16300       14.97400        4.92900
C          8.32100       13.29300        6.04600
H          9.20100       13.08200        5.83400
C          7.57000       12.47700        6.89200
H          7.94500       11.68100        7.19200
C          6.22200       12.82200        7.32500
H          5.74900       12.29500        7.92700
C          3.15200       12.90600        7.76500
C          2.81500       12.13300        6.65600
H          3.05700       12.41700        5.80500
C          2.11600       10.93300        6.81400
H          1.90100       10.40100        6.08100
C          1.75300       10.56200        8.10700
H          1.27800        9.77300        8.23300
C          2.08400       11.34200        9.21600
H          1.84900       11.09000       10.07900
C          2.77400       12.50100        8.96000
H          2.99000       13.04300        9.68500
C          1.49900       16.45700        9.28600
C          0.72600       15.34800        8.93500
H          0.73600       15.02500        8.06200
C         -0.05900       14.73300        9.90200
H         -0.54800       13.97400        9.67800
C         -0.12400       15.20500       11.13400
H         -0.70500       14.80600       11.73800
C          0.65000       16.28100       11.55500
H          0.65000       16.55500       12.44300
C          1.42700       16.93400       10.59400
H          1.90200       17.69900       10.83000
C          1.44200       18.80900        7.73200
C          0.12900       18.88900        8.18100
H         -0.27100       18.17700        8.62500
C         -0.56800       20.07300        7.94100
H         -1.44100       20.13500        8.25500
C         -0.05000       21.13100        7.28200
H         -0.56400       21.88800        7.12400
C          1.23300       21.06500        6.85700
H          1.61600       21.79700        6.42800
C          1.98500       19.90600        7.05600
H          2.85600       19.86300        6.73400
C          4.51900       14.97400        9.15500
H          3.72700       15.30600        9.60400
H          4.83900       14.20500        9.65400
C          5.60400       16.07000        9.17700
H          5.78000       16.31000       10.10100
H          6.42300       15.70000        8.81200
C          5.27300       17.30800        8.42600
H          5.26500       17.08900        7.48100
H          5.99000       17.94400        8.56900
C          3.94600       18.01100        8.75800
H          4.01700       18.93800        8.48100
H          3.83500       18.00500        9.72200
C          5.06100       19.11400        4.98200
H          4.22700       18.81300        4.71700
C          6.38500       18.13600        3.23600
H          5.82800       17.35300        3.19700
H          7.29300       17.87500        3.39700
H          6.32700       18.60900        2.40100
C          7.18300       19.25700        4.84800
H          7.11300       19.78700        5.64300
H          7.68700       19.73600        4.18500
H          7.63100       18.43100        5.05200
N          6.13300       18.86400        4.25100
O          5.19200       19.69500        5.91600
O          7.19400       10.90600        9.41600
H          7.80900       10.83800        9.99900
H          6.43600       10.84700        9.79800
