81
C:\Users\Javier\OneDrive - Universitat de Barcelona\Tesi\4 - Contribucions\Treballs\3-PhD\chapter_1\cif\pc4p\EMEPIW.pc4p.pdb
Ru         5.55900       -0.06800        1.62200
P          4.58700        1.18100        3.34300
Cl         9.52700        3.91200       -1.83000
Cl         4.40400       -2.00300        2.49300
Cl         7.56500       -0.47500        3.01900
P          3.76600        0.21900        0.20300
Cl         8.44500       -3.43100       -3.24400
N          6.83400        1.28200        0.65800
N          6.52300       -1.27500        0.16900
C          3.99400       -0.63100       -1.41000
C          8.01500       -1.30200       -1.70200
H          8.62200       -0.84900       -2.29100
C          4.54300        0.44700        5.03100
C          8.54400        2.89600       -0.83800
C          7.54300        0.78200       -0.40500
C          7.92400        3.39400        0.27500
H          8.05600        4.31200        0.52100
C          8.38600        1.58700       -1.17000
H          8.83200        1.24400       -1.94900
C          4.00100        3.01700       -0.00400
H          4.71900        2.93300        0.62900
C          2.11500       -0.45300        0.67600
H          1.58600       -0.59500       -0.11000
H          2.26100       -1.29100        1.12100
C          5.35300        2.79900        3.74700
C          4.74300       -0.05100       -2.40100
H          5.10500        0.82200       -2.23800
C          5.20100       -0.71800        5.37700
H          5.68100       -1.18100        4.68500
C          6.56900        2.81900        4.40800
H          6.96500        1.98700        4.67900
C          2.84400        1.67900        3.12900
H          2.58700        2.23800        3.86800
H          2.75100        2.17200        2.31000
C          1.23000        0.31300        1.66600
H          1.10700        1.19200        1.30100
H          0.37700       -0.11400        1.77100
C          7.74300       -2.61400       -1.90900
C          7.36800       -0.63900       -0.65400
C          1.82900        0.53600        3.06800
H          2.30000       -0.26900        3.29600
H          1.11300        0.67800        3.69300
C          4.42500       -0.58500        7.62800
H          4.37000       -0.94500        8.51700
C          3.81400        1.09600        6.04200
H          3.36700        1.91100        5.80600
C          6.70700        5.21200        4.23100
H          7.13500        6.05200        4.41500
C          7.19500        4.02000        4.63200
H          8.03300        4.05100        5.09900
C          3.32600        1.89400       -0.41200
C          2.65000        4.43800       -1.33600
H          2.41900        5.30300       -1.68100
C          6.90900       -3.28500       -1.04700
H          6.74500       -4.21800       -1.20100
C          5.49300        5.19900        3.54300
H          5.14000        6.02700        3.20900
C          5.15300       -1.21600        6.66500
H          5.64600       -2.00700        6.89300
C          6.33100       -2.57500       -0.00800
H          5.77900       -3.04700        0.61900
C          3.75200        0.58000        7.32200
H          3.24800        1.03200        8.00200
C          1.95600        3.35200       -1.75000
H          1.20800        3.44500       -2.34600
C          7.09700        2.54900        0.99600
H          6.69900        2.91700        1.78800
C          4.81900        4.01900        3.34600
H          3.97400        4.03700        2.89200
C          4.43800       -1.95800       -3.79600
H          4.62600       -2.45700       -4.59600
C          2.28100        2.07900       -1.31100
H          1.80700        1.30900       -1.63400
C          4.98800       -0.70800       -3.61400
H          5.49500       -0.29200       -4.31500
C          3.69000        4.28700       -0.45000
H          4.19900        5.03700       -0.13300
C          3.48800       -1.89600       -1.63400
H          2.99900       -2.31000       -0.91800
C          3.70700       -2.55100       -2.83800
H          3.25300       -3.38300       -2.98700
