104
C:\Users\Javier\OneDrive - Universitat de Barcelona\Tesi\4 - Contribucions\Treballs\3-PhD\chapter_1\cif\pc4p\FICVAR.pc4p.pdb
Ru        11.40700       13.49600        3.32300
N         10.24500       10.64300        5.71500
N         11.44100       13.92200        1.29300
N         11.02700       11.39200        3.58300
N          9.36000       13.55900        2.84100
O         10.90900       12.79900        5.26200
O         11.18800       10.01700        1.80000
P         11.48800       15.78000        3.65200
P         13.62600       13.14100        3.81400
C         10.71400       11.58100        4.87700
C         10.87500       10.19400        3.00100
C         10.29800        9.15900        3.82500
C         10.05100        9.45200        5.10200
H          9.70900        8.76600        5.62800
C         12.51500       14.15400        0.50500
H         13.36100       14.01200        0.86500
C         12.43300       14.58300       -0.79200
H         13.20500       14.73200       -1.29100
C         11.19600       14.78900       -1.34500
H         11.11200       15.10200       -2.21600
C         10.09200       14.52500       -0.58800
H          9.24500       14.63700       -0.95600
C         10.21900       14.09900        0.70700
C          9.06300       13.83700        1.56900
C          7.74200       13.88700        1.11400
H          7.55600       14.09600        0.22700
C          6.72700       13.62300        1.99500
H          5.84000       13.66100        1.71500
C          7.02900       13.30800        3.27800
H          6.34900       13.10400        3.87800
C          8.34900       13.28900        3.69700
H          8.54400       13.08600        4.58400
C          9.99100        7.83100        3.18900
H          9.80100        7.18500        3.87300
H         10.74900        7.53900        2.67600
H          9.22900        7.92000        2.61100
C         11.58100       16.42300        5.36700
C         11.65300       15.55900        6.44400
H         11.66500       14.63900        6.30200
C         11.70900       16.06000        7.73500
H         11.75500       15.47900        8.45900
C         11.69500       17.41400        7.94300
H         11.73500       17.74600        8.81100
C         11.62400       18.27800        6.89800
H         11.61600       19.19700        7.04200
C         11.56300       17.76500        5.61900
H         11.50800       18.35500        4.90300
C          9.93700       16.56200        3.07900
C          8.80200       16.49100        3.87600
H          8.87500       16.15900        4.74200
C          7.56900       16.90100        3.41600
H          6.82900       16.84800        3.97600
C          7.42700       17.38100        2.15900
H          6.59000       17.63900        1.84700
C          8.51900       17.48500        1.35200
H          8.42700       17.83100        0.49300
C          9.78500       17.07500        1.80000
H         10.52200       17.14900        1.23800
C         12.74100       16.80200        2.77100
H         12.82600       16.45900        1.86800
H         12.39700       17.70600        2.70500
C         14.14600       16.87000        3.39000
H         14.06300       17.14500        4.31700
H         14.65400       17.55500        2.92700
C         14.66100       12.25700        2.59200
C         14.03800       11.45400        1.63800
H         13.11100       11.47500        1.57000
C         14.76000       10.61900        0.78000
H         14.33600       10.08100        0.15000
C         16.14200       10.63600        0.91700
H         16.65800       10.09600        0.36100
C         16.76200       11.41600        1.83900
H         17.69000       11.40000        1.90200
C         16.04500       12.22700        2.67900
H         16.48400       12.75500        3.30600
C         14.63600       14.51800        4.41500
H         14.15800       14.97500        5.12300
H         15.45800       14.16600        4.79000
C         14.97400       15.50500        3.33800
H         14.82300       15.08500        2.47700
H         15.91900       15.71400        3.40000
C         14.07700       12.27100        6.49900
H         14.18800       13.17300        6.69300
C         13.81700       11.86700        5.19500
C         13.65200       10.51800        4.90300
H         13.47700       10.24800        4.03100
C         13.74900        9.57200        5.91800
H         13.64000        8.66900        5.72300
C         14.01100        9.97500        7.22200
H         14.07600        9.34200        7.90000
C         14.17500       11.32500        7.51100
H         14.35100       11.59400        8.38500
O         12.66700        7.60800        1.33200
H         12.25600        8.35100        1.37200
H         13.49200        7.76200        1.46800
O         14.10900       20.35900        3.56600
H         13.62400       19.87100        4.12300
H         14.69400       19.90200        3.11200
O         10.24900       11.45900        8.27500
H         10.61600       11.47800        7.50800
H          9.48500       11.82300        8.20500
O          9.22000       13.62800        7.68200
H          9.56500       13.60600        6.93700
H          8.93600       14.40900        7.85500
