91
C:\Users\Javier\OneDrive - Universitat de Barcelona\Tesi\4 - Contribucions\Treballs\3-PhD\chapter_1\cif\pc4p\FUMXUH.pc4p.pdb
Ru         3.27700        4.12800        4.23300
P          5.11900        4.75300        5.44300
P          4.46500        3.19300        2.58100
O          2.11700        5.05100        5.81900
O          0.47700        6.17200        6.75500
N          1.49700        3.49900        3.43200
N          2.72500        2.39600        5.50300
C          0.86300        4.31700        2.56900
C         -0.35300        3.91700        2.02500
C         -0.87100        2.68900        2.36300
C         -0.21500        1.87500        3.24900
C          0.97900        2.31400        3.79100
C          1.80200        1.51900        4.76800
C          2.89000        5.67400        2.92800
C          3.58500        6.84300        2.60000
C          3.08100        7.87200        1.80100
C          1.81700        7.70800        1.25500
C          1.10200        6.55800        1.48700
C          1.60800        5.55000        2.30300
C          3.88100        9.13500        1.59600
C          1.16600        5.76200        5.79500
C          5.26900        6.45300        6.14100
C          6.22100        6.70700        7.13200
C          6.35700        7.96900        7.66300
C          5.58300        9.00100        7.21100
C          4.62800        8.77400        6.23700
C          4.45000        7.48700        5.72400
C          5.22100        3.83300        7.03800
C          4.15000        3.94500        7.93100
C          4.17300        3.30100        9.15600
C          5.25700        2.54300        9.51500
C          6.31600        2.40600        8.65500
C          6.29400        3.05000        7.41500
C          6.82700        4.52900        4.79200
C          7.18000        5.29000        3.51000
C          7.07900        4.44900        2.23500
C          5.69000        4.21600        1.64600
C          5.44200        1.65400        2.87800
C          6.02600        0.94500        1.83500
C          6.79100       -0.15000        2.07400
C          6.99500       -0.59300        3.36700
C          6.40600        0.07000        4.41400
C          5.62800        1.19500        4.17300
C          3.39800        2.66200        1.18400
C          3.12000        3.51600        0.11300
C          2.23500        3.15200       -0.88100
C          1.58400        1.94200       -0.81800
C          1.83400        1.07500        0.22900
C          2.74400        1.44000        1.21500
H          3.48100        1.92600        5.73400
H          2.32300        2.69200        6.27500
H         -0.82200        4.48600        1.42700
H         -1.69200        2.40300        1.97900
H         -0.57200        1.02600        3.48400
H          1.20200        1.06000        5.40800
H          2.31800        0.82900        4.28200
H          4.46400        6.94400        2.94500
H          1.44300        8.39600        0.71500
H          0.24900        6.44800        1.08500
H          3.52200        9.62800        0.82800
H          4.81900        8.90300        1.42400
H          3.82400        9.69300        2.39900
H          0.89100        6.05600        4.93600
H          6.78000        6.00300        7.44200
H          6.99400        8.12500        8.35000
H          5.70100        9.87300        7.56600
H          4.09400        9.49200        5.91800
H          3.76400        7.32100        5.08800
H          3.39600        4.47000        7.69300
H          3.43500        3.38400        9.75000
H          5.27500        2.11200       10.36000
H          7.06200        1.87500        8.90300
H          7.02900        2.94800        6.82100
H          7.46300        4.80400        5.49900
H          6.96900        3.56300        4.62700
H          6.57400        6.06900        3.42600
H          8.10400        5.63700        3.58900
H          7.63600        4.88100        1.54000
H          7.48100        3.56300        2.42400
H          5.81100        3.79600        0.75600
H          5.28000        5.10400        1.49300
H          5.88700        1.23300        0.94100
H          7.18900       -0.61400        1.34700
H          7.54000       -1.35500        3.53100
H          6.53000       -0.23900        5.30300
H          5.22400        1.65400        4.90000
H          3.54900        4.36100        0.06900
H          2.07300        3.74000       -1.60900
H          0.96300        1.70200       -1.49600
H          1.38800        0.23800        0.27300
H          2.92100        0.83700        1.92700
