118
C:\Users\Javier\OneDrive - Universitat de Barcelona\Tesi\4 - Contribucions\Treballs\3-PhD\chapter_1\cif\pc4p\FUMYAO.pc4p.pdb
Ru        15.14100        2.05200       11.93000
P         14.31300        1.15400       13.86400
P         17.25400        2.26000       12.67300
O         13.09800        2.29400       11.26500
O         12.63500        0.90800        9.66000
N         15.65300        2.68000       10.03800
N         15.12100        0.15400       10.74700
H         15.33100       -0.59300       11.10400
H         14.28500        0.11300       10.45600
C         15.57800        3.99200        9.78600
C         15.81800        4.42500        8.48100
H         15.79700        5.33300        8.27900
C         16.08500        3.50200        7.49200
H         16.23700        3.79000        6.62000
C         16.13100        2.17400        7.78300
H         16.31400        1.55200        7.11600
C         15.90200        1.76000        9.08400
C         15.97800        0.34800        9.54600
H         15.68300       -0.24400        8.83800
H         16.89600        0.12500        9.76200
C         15.04400        4.09400       12.18000
C         14.72500        4.89800       13.29700
H         14.59500        4.47500       14.11600
C         14.59500        6.27500       13.24500
C         14.82500        6.91300       12.03800
H         14.77000        7.84000       11.99100
C         15.13300        6.19200       10.91100
H         15.26800        6.63600       10.10400
C         15.24800        4.79400       10.96300
C         14.19000        7.05000       14.48400
H         14.14800        7.98600       14.27800
H         14.83600        6.90300       15.17900
H         13.32800        6.74900       14.78200
C         12.39500        1.87600       10.41500
C         12.76400        1.82300       14.61700
C         12.19500        1.21200       15.73500
H         12.62100        0.48200       16.12400
C         11.01000        1.67500       16.27200
H         10.65000        1.27000       17.02600
C         10.37500        2.72500       15.69300
H          9.56800        3.02600       16.04500
C         10.91700        3.35200       14.58400
H         10.47900        4.07300       14.19400
C         12.12100        2.89800       14.05600
H         12.49300        3.32600       13.31800
C         13.72300       -0.56200       13.53400
C         12.59800       -0.74300       12.74800
H         12.13300        0.00200       12.44000
C         12.14800       -2.00500       12.40900
H         11.39600       -2.09800       11.87100
C         12.79600       -3.11600       12.85800
H         12.48100       -3.96400       12.64100
C         13.91100       -2.96900       13.62600
H         14.35900       -3.72000       13.94100
C         14.37400       -1.71100       13.94200
H         15.15300       -1.63200       14.44800
C         15.38900        0.84900       15.33500
H         14.87400        0.36100       15.99600
H         16.12700        0.28300       15.06300
C         15.95500        2.10200       15.99000
H         15.92100        1.99000       16.95300
H         15.38900        2.85500       15.76100
C         17.39500        2.42700       15.58300
H         17.79400        2.96700       16.28300
H         17.89500        1.59800       15.53600
C         17.56100        3.15900       14.26500
H         18.46600        3.50200       14.23400
H         16.96700        3.92600       14.28300
C         18.40200        0.83400       12.88200
C         19.73800        1.06000       13.22400
H         20.04600        1.93100       13.32800
C         20.60200        0.00100       13.40600
H         21.48900        0.16300       13.63400
C         20.16600       -1.28300       13.25200
H         20.75600       -1.99200       13.37200
C         18.85800       -1.52900       12.92300
H         18.56400       -2.40300       12.81300
C         17.97100       -0.47200       12.75300
H         17.08100       -0.64600       12.54800
C         18.27800        3.28000       11.54000
C         18.42600        4.63500       11.70500
H         18.01700        5.05600       12.42700
C         19.18800        5.39400       10.80700
H         19.30400        6.30500       10.94800
C         19.76100        4.79100        9.72000
H         20.27100        5.28900        9.12300
C         19.58200        3.46600        9.51700
H         19.94400        3.06400        8.76200
C         18.86600        2.70300       10.42600
H         18.77900        1.78800       10.28500
C         10.98400        2.50200       10.34500
H         10.49000        2.09900        9.62900
H         11.06000        3.44700       10.19100
H         10.52600        2.34900       11.17500
C         11.10900        4.36000        6.98800
H         10.81300        4.43500        7.86700
C         12.14700        3.47500        6.65800
H         12.55400        2.93500        7.29600
C         12.52500        3.45100        5.34300
H         13.20900        2.87500        5.09200
C         11.95000        4.22900        4.38000
H         12.25000        4.20400        3.50000
C         10.91800        5.04700        4.75100
H         10.47300        5.56500        4.12100
C         10.56300        5.08400        6.03500
H          9.87900        5.66700        6.27700
C          9.17800        0.65300        7.18400
H          9.64500        1.20100        6.59800
C          7.85400        0.30400        6.99500
H          7.38400        0.60000        6.24900
C          7.25300       -0.49200        7.93700
H          6.35600       -0.69500        7.79100
C          7.79900       -1.00500        9.02600
H          7.33200       -1.55300        9.61300
C          9.12300       -0.65500        9.21600
H          9.59300       -0.95200        9.96100
C          9.72400        0.14000        8.27400
H         10.62100        0.34300        8.42000
