110
C:\Users\Javier\OneDrive - Universitat de Barcelona\Tesi\4 - Contribucions\Treballs\3-PhD\chapter_1\cif\pc4p\GICQEP.pc4p.pdb
Pd         5.76400        3.08300        4.00100
P          7.54700        1.63400        3.90400
P          4.05100        1.54000        4.03700
C          4.32600        4.48600        4.01400
N          3.54500        5.30100        3.98200
C          7.14300        4.55000        3.98400
N          7.90400        5.38700        4.00700
C          2.56900        6.39200        3.89800
C          3.35600        7.67200        4.10800
C          1.54400        6.16300        4.99300
C          1.95000        6.32300        2.52100
C          8.87800        6.47300        4.11400
C          9.92500        6.24500        3.04200
C          9.47400        6.38200        5.50900
C          8.11300        7.76500        3.90200
C          8.31300        1.68500        2.27700
C          9.18900        0.68800        1.86500
C          9.75200        0.73500        0.60200
C          9.45300        1.76100       -0.24800
C          8.58100        2.74400        0.13900
C          8.00300        2.71100        1.39600
C          8.75600        2.18800        5.13800
C          8.30300        2.62300        6.37100
C          9.20600        3.02100        7.34500
C         10.55200        3.00800        7.07700
C         11.01100        2.58800        5.85600
C         10.11900        2.16300        4.87900
C          2.90600        2.01900        2.71700
C          3.41600        2.55600        1.55100
C          2.56300        2.92800        0.53200
C          1.21700        2.78000        0.66000
C          0.71500        2.24300        1.79400
C          1.54900        1.85500        2.83100
C          3.16200        1.58500        5.60700
C          2.25900        0.57500        5.93700
C          1.56600        0.64000        7.13300
C          1.75300        1.68700        7.99100
C          2.65200        2.67800        7.68400
C          3.36600        2.63100        6.49900
C          4.37200       -0.22100        3.69900
C          5.01800       -1.01400        4.82500
C          6.29300       -0.40500        5.39300
C          7.33000       -0.13600        4.28600
N          5.23600        0.00000       14.77600
C          4.95100        1.05500       14.39600
C          4.70900        2.19100       13.51100
P          5.94600        6.28700        0.34000
F          7.44700        6.05500        0.80000
F          4.44200        6.51800       -0.12500
F          6.38200        7.63300       -0.31500
F          5.59700        6.99000        1.67000
F          5.50400        4.90800        0.94400
F          6.27700        5.55600       -1.02500
F          6.33300        6.91600       -0.95600
F          5.98900        7.72500        1.00600
F          5.57400        5.75000        1.72100
F          5.93000        4.91900       -0.26400
P         11.42900        1.99500       11.36800
F         12.98000        2.08900       11.67300
F          9.87700        1.89600       11.05500
F         11.61800        3.02300       10.17600
F         11.13600        3.22000       12.33600
F         11.25500        0.99000       12.58000
F         11.70400        0.77200       10.39400
H          2.79300        8.37700        4.06300
H          4.12300        7.70300        3.48700
H          3.72500        7.64900        4.96500
H          0.84900        6.84700        4.96500
H          1.07600        5.31700        4.82100
H          1.92700        6.21700        5.86600
H          1.47800        5.48000        2.41900
H          2.64000        6.42600        1.81900
H          1.35600        7.05800        2.42300
H         10.36600        5.42300        3.15900
H         10.56100        6.91300        3.14000
H          9.53800        6.24400        2.14400
H          9.96300        5.52900        5.59000
H         10.08300        7.09500        5.61000
H          8.78900        6.43100        6.17000
H          8.69400        8.50500        3.98100
H          7.73400        7.76400        2.99500
H          7.39100        7.81300        4.49500
H          9.45000        0.04900        2.41100
H         10.29200        0.05900        0.38000
H          9.78100        1.84000       -1.11400
H          8.34400        3.41400       -0.36900
H          7.47000        3.37700        1.58100
H          7.40100        2.70000        6.53800
H          8.91000        3.29100        8.13300
H         11.15400        3.27600        7.70600
H         11.88800        2.61400        5.65200
H         10.42500        1.91100        4.01500
H          4.32200        2.66800        1.46100
H          2.92300        3.21700       -0.19200
H          0.64200        3.06900        0.01500
H         -0.19200        2.16200        1.90600
H          1.19100        1.61300        3.63300
H          2.10200       -0.12300        5.34100
H          0.98300       -0.03200        7.31800
H          1.30700        1.74900        8.78400
H          2.80600        3.32500        8.22600
H          3.96800        3.27100        6.32100
H          5.03600       -0.31000        2.76800
H          3.60200       -0.56800        3.45800
H          4.34600       -1.06000        5.57600
H          5.20600       -1.91600        4.47400
H          6.05900        0.46500        5.93500
H          6.67100       -0.97100        6.09100
H          6.98600       -0.69600        3.35900
H          8.13100       -0.42100        4.49800
