83
C:\Users\Javier\OneDrive - Universitat de Barcelona\Tesi\4 - Contribucions\Treballs\3-PhD\chapter_1\cif\pc4p\GIYJOO.pc4p.pdb
Ru        14.23600       13.08300       10.30100
Cl        16.55800       13.16400       11.09300
Cl        14.85100       14.56100        8.39600
P         13.85000       11.63600       12.00100
P         13.33200       14.86600       11.39400
N         12.50600       12.76800        9.11400
H         11.75100       12.87800        9.63000
H         12.48100       13.38500        8.43300
N         14.94600       11.52700        8.94500
H         15.69200       11.82800        8.50000
H         15.18500       10.78400        9.43200
C         12.14900       11.16700       12.54800
C         11.95900       10.19600       13.53600
H         12.70500        9.75800       13.92500
C         10.65800        9.87200       13.94900
H         10.53100        9.21500       14.62300
C          9.56400       10.49500       13.38900
H          8.68800       10.25800       13.67000
C          9.73700       11.45600       12.42700
H          8.98400       11.89300       12.04600
C         11.02900       11.78800       12.01000
H         11.14300       12.45400       11.34300
C         14.57100        9.97900       11.62700
C         13.80400        8.95300       11.07100
H         12.87100        9.07500       10.94600
C         14.40400        7.75000       10.70000
H         13.87000        7.05300       10.33500
C         15.75600        7.55500       10.85400
H         16.15300        6.73000       10.60200
C         16.53200        8.57300       11.38000
H         17.47000        8.45200       11.47600
C         15.94600        9.77800       11.76900
H         16.48700       10.46900       12.13300
C         14.67900       11.95500       13.62800
H         14.74000       11.09100       14.10800
H         15.60600       12.24900       13.44000
C         14.05700       12.97300       14.58700
H         14.56700       12.95100       15.43600
H         13.13300       12.68300       14.79100
C         14.00800       14.42200       14.09600
H         14.85100       14.62600       13.62000
H         13.95400       15.02300       14.88100
C         12.82300       14.72500       13.15600
H         12.39500       15.57300       13.43800
H         12.15000       14.00400       13.24200
C         14.30100       16.43100       11.51300
C         13.70100       17.60100       11.98800
H         12.76500       17.62000       12.14800
C         14.46700       18.73600       12.22800
H         14.05300       19.52300       12.56100
C         15.82300       18.72400       11.98500
H         16.34400       19.49900       12.15600
C         16.42600       17.57500       11.48900
H         17.35900       17.56900       11.31000
C         15.66500       16.43200       11.25300
H         16.08200       15.64900       10.91300
C         11.77000       15.45800       10.60300
C         11.83500       16.10100        9.36200
H         12.68100       16.27800        8.96800
C         10.66800       16.48400        8.69900
H         10.72700       16.93100        7.86200
C          9.42800       16.22000        9.25200
H          8.63600       16.47600        8.79300
C          9.34200       15.58000       10.47600
H          8.49200       15.38900       10.85300
C         10.51100       15.21400       11.15900
H         10.44600       14.79600       12.00900
C         12.52900       11.39700        8.54900
H         11.83500       11.30800        7.84700
H         12.34200       10.73300        9.25800
C         13.90000       11.15400        7.95900
H         13.99600       10.19900        7.71700
H         14.01000       11.69400        7.13600
Cl         9.12700       12.50700        8.61500
Cl         9.33900        9.68700        9.38000
C          8.24600       11.02000        8.95300
H          7.71700       10.76700        8.15700
H          7.61600       11.17800        9.70100
Cl        11.74400        6.94200        8.13600
Cl         9.46100        6.01400        6.63100
C         10.18400        6.15000        8.21500
H         10.29400        5.24700        8.60400
H          9.58300        6.66800        8.80800
