124
C:\Users\Javier\OneDrive - Universitat de Barcelona\Tesi\4 - Contribucions\Treballs\3-PhD\chapter_1\cif\pc4p\HAVXIM.pc4p.pdb
Ru        12.08600        4.24000       12.40600
Cl        14.27500        4.39500       13.59400
P         10.03900        3.92900       11.52100
P         12.99900        5.08800       10.48900
N         11.43200        3.62500       14.24600
N         11.84100        6.16000       13.54600
H         12.65400        6.43600       13.87500
H         11.51500        6.81600       12.98800
C         12.32000        2.20700       12.19600
C         12.71000        1.38700       11.11600
H         12.90200        1.80900       10.28700
C         12.83200        0.01000       11.17900
C         12.56000       -0.62700       12.39800
H         12.64500       -1.57100       12.47000
C         12.16600        0.11700       13.48700
H         11.98600       -0.32400       14.31000
C         12.02500        1.49400       13.41100
C         11.52800        2.29600       14.52400
C         11.12900        1.85300       15.78300
H         11.18000        0.93000       15.99600
C         10.66000        2.74500       16.71400
H         10.37300        2.43400       17.56500
C         10.60000        4.11600       16.41200
H         10.30000        4.74800       17.05500
C         10.99300        4.51200       15.15300
C         10.89400        5.92800       14.66200
H          9.96900        6.10800       14.35500
H         11.09800        6.55000       15.40400
C         13.26200       -0.79200        9.97300
H         13.29400       -1.74300       10.20800
H         14.15000       -0.49700        9.68400
H         12.62000       -0.65700        9.24500
C          9.83700        3.01500        9.93300
H         10.45300        2.24000        9.96700
H          8.91700        2.64800        9.92700
C         10.04900        3.69100        8.59600
H          9.49600        4.51200        8.56900
H          9.72100        3.08800        7.88400
C         11.49300        4.07500        8.27300
H         12.08800        3.32700        8.53100
H         11.57900        4.20200        7.29400
C         11.96200        5.34000        8.97400
H         11.16400        5.87000        9.22600
H         12.48200        5.88000        8.32600
C          8.99000        2.83700       12.57800
C          9.05700        1.46300       12.43100
H          9.63700        1.08700       11.78000
C          8.29000        0.63100       13.22200
H          8.33500       -0.31000       13.09400
C          7.46300        1.14400       14.19100
H          6.93000        0.56600       14.72300
C          7.41600        2.50600       14.37900
H          6.86800        2.87100       15.06400
C          8.17400        3.34900       13.56900
H          8.13000        4.28900       13.70200
C          8.89200        5.34400       11.23700
C          9.32100        6.66100       11.33800
H         10.22300        6.83900       11.57800
C          8.46000        7.72100       11.09700
H          8.76200        8.61700       11.19500
C          7.15900        7.46100       10.71300
H          6.56700        8.18300       10.53500
C          6.71800        6.17000       10.58900
H          5.82300        6.00100       10.31700
C          7.56600        5.11100       10.85400
H          7.24800        4.22000       10.77500
C         13.59000        6.81200       10.73900
C         14.77600        7.04600       11.45200
H         15.26400        6.31200       11.80400
C         15.24100        8.34000       11.64800
H         16.04600        8.48000       12.13400
C         14.55600        9.41900       11.14900
H         14.89300       10.29800       11.27400
C         13.38000        9.21900       10.46700
H         12.89500        9.96300       10.12600
C         12.89300        7.93000       10.27300
H         12.07100        7.80700        9.81500
C         14.52500        4.34800        9.76000
C         15.24100        3.38300       10.46500
H         14.93200        3.09500       11.31600
C         16.39700        2.83900        9.93700
H         16.88300        2.18600       10.42600
C         16.85100        3.25300        8.68300
H         17.63800        2.87100        8.31400
C         16.16400        4.20800        7.98700
H         16.47800        4.48900        7.13600
C         15.01200        4.76700        8.51700
H         14.55100        5.44200        8.03300
C         10.34300        1.81800        3.33700
H         10.10000        1.76100        4.25500
C          9.62600        2.60600        2.49400
H          8.88300        3.09400        2.82900
C          9.95600        2.70800        1.18100
H          9.44300        3.26100        0.60300
C         11.03300        2.00700        0.68800
H         11.25900        2.07900       -0.23200
C         11.77900        1.21600        1.50300
H         12.53000        0.74700        1.15900
C         11.42600        1.09500        2.86500
H         11.92300        0.53200        3.44600
C          8.26500        0.02400        6.52500
H          8.43900        0.01500        5.59200
C          6.96200        0.08400        6.99900
H          6.24300        0.13800        6.38100
C          9.29500       -0.02100        7.42500
H         10.19500       -0.04200        7.11800
C          2.93000        6.16700        1.20900
H          3.34500        6.11400        2.06300
C          3.39600        7.03300        0.28900
H          4.12900        7.60400        0.49700
C          1.86400        5.37100        0.92000
H          1.52600        4.77500        1.58000
C          7.72200        0.02100        9.26200
H          7.54800        0.03000       10.19500
C          9.02500       -0.03800        8.78900
H          9.74500       -0.09300        9.40600
C          6.69200        0.06600        8.36300
H          5.79300        0.08700        8.66900
C          1.75700        6.28700       -1.20900
H          1.34100        6.34100       -2.06300
C          1.29100        5.42200       -0.28900
H          0.55800        4.85100       -0.49700
C          2.82200        7.08400       -0.92000
H          3.16100        7.68000       -1.58000
