88
C:\Users\Javier\OneDrive - Universitat de Barcelona\Tesi\4 - Contribucions\Treballs\3-PhD\chapter_1\cif\pc4p\HAYCIV01.pc4p.pdb
C          3.76100        4.79100        6.43700
H          3.92100        5.75700        6.41400
C          4.71300        4.18500        7.44600
H          4.54300        3.22100        7.47400
C          4.44900        4.73800        8.82600
H          5.03900        4.30800        9.46400
H          4.64100        5.68900        8.83500
C          3.01500        4.51200        9.23500
H          2.85700        4.93700       10.09300
H          2.86200        3.55900        9.34400
C          2.03200        5.05800        8.22200
H          1.13400        4.79400        8.47400
H          2.07100        6.02800        8.23300
C          2.31600        4.57100        6.83100
H          1.74000        5.03800        6.20600
H          2.11000        3.62500        6.77600
C          8.25100        6.90400        3.75400
H          8.43400        7.82300        4.00200
H          8.93300        6.35800        4.17500
C          8.45500        6.79500        2.23500
H          7.86600        7.43400        1.80400
H          9.36600        7.05800        2.03200
C          8.20800        5.43600        1.61600
H          8.58100        4.75500        2.19800
H          8.68000        5.38800        0.76900
C          6.72800        5.11900        1.37300
H          6.62000        4.78700        0.46900
H          6.21300        5.93700        1.45400
C          6.84100        7.31600        6.12900
C          5.91300        8.19900        6.63200
H          5.18200        8.44500        6.11300
C          6.05700        8.72700        7.90800
H          5.41200        9.30800        8.24100
C          7.14300        8.40100        8.67900
H          7.23300        8.75900        9.53400
C          8.07900        7.56000        8.19400
H          8.82600        7.35400        8.70700
C          7.93200        6.99600        6.92500
H          8.57400        6.40000        6.60900
C          5.47700        7.57500        3.65200
C          4.16400        7.22900        3.40600
H          3.86900        6.38400        3.65900
C          3.27400        8.08600        2.79900
H          2.39200        7.82200        2.66800
C          3.67500        9.29700        2.39800
H          3.07900        9.87500        1.98000
C          4.96600        9.67700        2.61100
H          5.25200       10.51500        2.32700
C          5.85300        8.83200        3.24300
H          6.72400        9.11800        3.39500
C          6.83800        2.34600        1.83400
C          7.87800        1.73300        2.47500
H          8.18400        2.07200        3.28500
C          8.48300        0.60800        1.92600
H          9.19300        0.20000        2.36800
C          8.03100        0.09600        0.72900
H          8.43500       -0.65500        0.35700
C          6.98400        0.70000        0.09400
H          6.67000        0.35600       -0.71000
C          6.38500        1.82500        0.64000
H          5.67400        2.23100        0.19700
C          4.34000        3.66900        1.97000
C          3.62000        2.57100        2.42900
H          4.03500        1.94700        2.97800
C          2.29000        2.39600        2.07900
H          1.81400        1.67100        2.41500
C          1.67700        3.28200        1.23900
H          0.79100        3.15000        0.99100
C          2.36200        4.35800        0.76900
H          1.93800        4.96000        0.20000
C          3.67800        4.56600        1.12700
H          4.13100        5.31300        0.80400
N          4.10800        4.24500        5.11200
H          3.71900        4.73800        4.48100
H          3.79500        3.41600        5.04500
N          6.09000        4.38200        6.95000
H          6.62200        3.77000        7.31500
H          6.38000        5.18400        7.20300
Cl         5.83700        1.80700        5.20900
Cl         8.59600        3.87600        5.09100
Ru         6.20100        4.23000        4.79100
P          6.63000        6.44100        4.51700
P          6.06400        3.87300        2.55300
C          9.43700       11.78000        3.04400
H         10.00500       11.85000        3.82600
H          9.63000       12.53300        2.46300
Cl         9.79200       10.28800        2.19700
Cl         7.77900       11.84300        3.53100
