91
C:\Users\Javier\OneDrive - Universitat de Barcelona\Tesi\4 - Contribucions\Treballs\3-PhD\chapter_1\cif\pc4p\HAYCIV.pc4p.pdb
Ru        -0.34200        2.31100        2.30900
Cl         0.92400        2.08800        0.24400
Cl         0.99700        0.48800        3.36400
P         -1.70800        3.79500        1.25600
P          0.97600        3.92300        3.21000
N         -1.47500        2.00100        4.06800
H         -0.86000        1.55000        4.45700
H         -1.69100        2.62900        4.58800
N         -1.54900        0.62400        1.69000
H         -2.09500        0.87400        1.01900
H         -1.01500       -0.03400        1.38600
C         -2.99000        2.95400        0.23100
C         -2.56300        2.17900       -0.85600
H         -1.65900        2.14800       -1.07200
C         -3.47500        1.45400       -1.61500
H         -3.17800        0.94500       -2.33400
C         -4.79300        1.48500       -1.31300
H         -5.39600        1.00200       -1.83000
C         -5.24300        2.22900       -0.24900
H         -6.15000        2.24200       -0.04300
C         -4.34700        2.95800        0.52100
H         -4.66100        3.45700        1.24100
C         -2.73400        5.00900        2.19300
C         -3.54400        5.92400        1.56400
H         -3.60100        5.93200        0.63500
C         -4.28000        6.83800        2.31200
H         -4.81600        7.45900        1.87400
C         -4.23300        6.84200        3.66100
H         -4.75000        7.44700        4.14500
C         -3.42400        5.95000        4.31800
H         -3.36300        5.96000        5.24700
C         -2.69600        5.03100        3.57000
H         -2.16400        4.41200        4.01300
C         -1.01400        4.84000       -0.09400
H         -0.51800        4.25200       -0.68500
H         -1.76300        5.18500       -0.60500
C         -0.11100        6.01700        0.22200
H         -0.63000        6.67600        0.70900
H          0.16300        6.42500       -0.61500
C          1.14100        5.70600        1.03100
H          1.80200        6.39600        0.87100
H          1.51200        4.86100        0.72800
C          0.86200        5.61600        2.54200
H         -0.02800        5.96200        2.71700
H          1.49600        6.18100        3.01100
C          2.80700        3.71800        3.26500
C          3.43900        2.67000        2.60600
H          2.94400        2.05100        2.12100
C          4.82500        2.56200        2.68700
H          5.25100        1.85000        2.26400
C          5.57800        3.48100        3.37400
H          6.50400        3.39400        3.41100
C          4.95400        4.53000        4.00700
H          5.45900        5.16500        4.46000
C          3.58400        4.64100        3.96800
H          3.16900        5.34100        4.41800
C          0.63900        4.17300        5.00500
C          0.94100        3.15700        5.88300
H          1.37300        2.39400        5.57300
C          0.60700        3.26200        7.23700
H          0.84400        2.58400        7.82600
C         -0.06900        4.36100        7.69400
H         -0.31900        4.41800        8.58800
C         -0.37100        5.34900        6.84400
H         -0.82500        6.09600        7.15900
C         -0.02000        5.28200        5.50200
H         -0.23100        5.98800        4.93500
C         -2.68500        1.23700        3.75500
H         -3.29200        1.84200        3.27900
C         -2.35400        0.12200        2.82100
H         -1.77400       -0.49100        3.31800
C         -3.57700       -0.68600        2.40200
H         -4.15500       -0.14000        1.84600
H         -3.29700       -1.45500        1.88300
C         -4.33700       -1.14600        3.62400
H         -5.16700       -1.55800        3.33700
H         -3.81400       -1.82600        4.07900
C         -4.65100       -0.06300        4.58800
H         -5.04600       -0.45200        5.38300
H         -5.30500        0.53200        4.19200
C         -3.43100        0.73800        4.98300
H         -2.84000        0.18300        5.51700
H         -3.70400        1.49500        5.52600
Cl        -4.35500        1.21800       -5.21700
Cl        -3.45900       -0.56600       -7.19000
C         -3.74200       -0.31800       -5.56100
H         -2.91200       -0.44200       -5.07400
H         -4.37100       -0.98600       -5.24500
Cl        -4.78700       -1.28800       -6.40000
H         -2.92600       -0.21900       -6.07600
H         -3.51200       -0.75500       -4.72600
