65
C:\Users\Javier\OneDrive - Universitat de Barcelona\Tesi\4 - Contribucions\Treballs\3-PhD\chapter_1\cif\pc4p\HOZBAZ.pc4p.pdb
Ru         6.11900        0.85000        2.35600
P          4.08500        0.66900        3.38600
P          6.38900        3.13900        2.97000
Cl         6.05000       -1.43600        1.62300
Cl         5.30500        1.65600        0.30700
Cl         7.36100        0.24700        4.20100
O          8.09800        0.81200        1.35900
C          3.26300        2.21600        3.90100
C          2.98200        3.22900        2.78200
C          3.83300        4.46300        2.83600
C          5.23500        4.35400        2.22200
C          2.74700       -0.17400        2.43200
C          1.54700       -0.39700        3.10400
C          0.46300       -0.95600        2.46300
C          0.55100       -1.29100        1.13900
C          1.73700       -1.10200        0.49200
C          2.83700       -0.53900        1.11600
C          4.13300       -0.30800        4.93600
C          4.57500       -1.60700        4.92800
C          4.57800       -2.34100        6.07700
C          4.18400       -1.78800        7.25900
C          3.76100       -0.52000        7.31500
C          3.73700        0.23600        6.14700
C          8.00200        3.64800        2.27200
C          9.13700        3.37300        2.96300
C         10.40000        3.61800        2.40100
C         10.49300        4.13400        1.16800
C          9.34400        4.40500        0.46500
C          8.12000        4.14200        0.99100
C          6.50700        3.70300        4.70800
C          6.35400        2.89400        5.80500
C          6.47300        3.44500        7.10900
C          6.72700        4.74200        7.30500
C          6.89000        5.56300        6.18800
C          6.81300        5.04500        4.95100
H          8.65300       -0.06300        1.33400
H          8.78000        1.43400        1.59200
H          2.41900        1.98700        4.32300
H          3.81500        2.64700        4.57000
H          3.12100        2.79400        1.92800
H          2.05000        3.49400        2.83000
H          3.92900        4.72400        3.76500
H          3.36000        5.17700        2.38300
H          5.65200        5.22800        2.26900
H          5.13500        4.13300        1.28300
H          1.47700       -0.16500        4.00100
H         -0.32700       -1.10600        2.93100
H         -0.18400       -1.64100        0.69000
H          1.80800       -1.36000       -0.39700
H          3.63000       -0.41000        0.64700
H          4.87400       -1.98900        4.13500
H          4.85400       -3.22900        6.05700
H          4.20800       -2.29700        8.03800
H          3.48800       -0.14900        8.12200
H          3.45200        1.12100        6.18000
H          9.07700        3.01600        3.82000
H         11.17100        3.42400        2.88500
H         11.32600        4.30800        0.79300
H          9.40700        4.77400       -0.38500
H          7.35700        4.29400        0.48200
H          6.17100        1.98900        5.69400
H          6.37000        2.88900        7.84600
H          6.79400        5.08800        8.16300
H          7.05200        6.47200        6.30000
H          6.97200        5.60300        4.22400
