99
C:\Users\Javier\OneDrive - Universitat de Barcelona\Tesi\4 - Contribucions\Treballs\3-PhD\chapter_1\cif\pc4p\IPIPEF.pc4p.pdb
C          7.92800       12.01500        2.20900
C          7.58200       13.18500        2.85100
H          7.20600       13.13500        3.70000
C          7.77100       14.37700        2.30300
H          7.57000       15.14100        2.79400
C          8.26200       14.50500        0.99100
H          8.32300       15.33200        0.57000
C          8.64200       13.38300        0.38200
H          9.04000       13.44100       -0.45600
C          8.47000       12.13100        0.95000
H          8.71500       11.36800        0.47900
C          9.29100        9.59400        2.70500
C         10.38000       10.24000        3.23600
H         10.26000       11.02500        3.71900
C         11.68900        9.70700        3.04700
H         12.42300       10.16700        3.38900
C         11.88300        8.57600        2.39800
H         12.73800        8.22400        2.29300
C         10.81300        7.95100        1.89100
H         10.95200        7.17500        1.39700
C          9.48400        8.39500        2.05900
H          8.76800        7.89600        1.74300
C          7.59000       10.66700        4.72700
H          8.38100       11.16600        4.98300
H          6.82200       11.22400        4.92100
C          7.51000        9.43400        5.58700
H          7.65400        8.65000        5.03300
H          8.21800        9.46300        6.24900
C          6.20900        9.30800        6.27700
H          5.96600       10.18000        6.62700
H          6.32500        8.71500        7.03700
C          5.03000        8.78900        5.44500
H          4.26000        8.74100        6.03600
H          5.24000        7.87800        5.18700
C          4.04200       11.31000        4.54700
C          4.22400       12.43800        3.77100
H          4.64000       12.34600        2.94400
C          3.80600       13.73000        4.17900
H          3.97200       14.48300        3.65700
C          3.15900       13.81800        5.35500
H          2.79800       14.63500        5.61500
C          3.01400       12.72200        6.18900
H          2.61600       12.81300        7.02600
C          3.47300       11.49000        5.76300
H          3.38300       10.75800        6.33200
C          2.87400        8.91800        3.64600
C          1.73700        9.65400        3.47300
H          1.77700       10.57900        3.55400
C          0.52300        9.05400        3.18200
H         -0.22900        9.57800        3.02800
C          0.43400        7.72900        3.12000
H         -0.39500        7.32600        2.97600
C          1.55400        6.95500        3.27100
H          1.50800        6.03100        3.18200
C          2.74500        7.55900        3.55400
H          3.49700        7.02800        3.68900
C          3.41300        9.19800        0.05800
C          3.74700       10.46900       -0.47300
C          4.61900       11.35700        0.18000
C          4.85700       12.61900       -0.38500
H          5.40800       13.22400        0.05800
C          4.30000       12.96700       -1.56200
C          3.47900       12.15200       -2.27800
H          3.11900       12.42400       -3.09400
C          3.19000       10.87800       -1.74100
H          2.63200       10.29800       -2.20900
C          2.24800        8.39100       -0.34400
C          2.33500        7.00400       -0.39300
C          1.22800        6.25300       -0.77600
H          1.28500        5.32500       -0.80800
C          0.04100        6.88800       -1.11100
C         -0.04600        8.27400       -1.06200
H         -0.84300        8.69900       -1.28700
C          1.05800        9.02600       -0.67900
H          1.00100        9.95300       -0.64700
C          5.78500       15.04100       -1.41000
H          5.91300       15.84000       -1.92700
H          5.50800       15.27600       -0.52200
H          6.60800       14.55000       -1.36900
C         -1.93300        5.28500       -1.88900
H         -2.73500        5.50900       -1.41200
H         -1.95000        4.34600       -2.11000
H         -1.88500        5.79900       -2.69700
O          4.11700        8.61900        0.96900
O          5.22400       11.13400        1.30600
O          4.66700       14.14500       -2.09300
O          3.44600        6.29700        0.00400
H          4.02200        6.81800        0.26000
P          7.65200       10.38600        2.91800
P          4.49800        9.65900        3.94700
Cl         6.93700        9.02200       -0.09800
Cl         6.23000        7.21800        2.71300
Ru         5.80900        9.39200        1.97300
O         -0.68000        5.59200       -0.99500
O         -1.40800        6.62400       -1.66700
C         -1.74100        6.46000       -3.27100
H         -2.39000        7.12200       -3.53100
H         -2.09200        5.58600       -3.44200
H         -0.93600        6.59200       -3.78000
