80
C:\Users\Javier\OneDrive - Universitat de Barcelona\Tesi\4 - Contribucions\Treballs\3-PhD\chapter_1\cif\pc4p\JABPUA.pc4p.pdb
Ru         9.36300       13.83100        3.09400
Br         8.74600       15.60300        1.44400
P         11.64500       14.48400        2.92800
P          8.97100       15.25700        4.85900
C          7.89600       12.41700        2.16600
H          7.56900       12.90700        1.48900
C          9.38800       11.86200        1.97000
H          9.78100       12.01300        1.07200
C         11.98900       16.29700        2.82100
H         12.75200       16.43400        2.20300
H         11.20100       16.74100        2.42200
C         12.31300       16.99200        4.15200
H         13.23900       16.75100        4.40900
H         12.29200       17.97100        4.00400
C         11.38800       16.66300        5.32000
H         11.63300       17.24100        6.08500
H         11.54700       15.72400        5.59300
C          9.88300       16.84200        5.03200
H          9.77700       17.36400        4.19700
H          9.47800       17.36500        5.76700
C          7.24400       15.84200        5.07900
C          6.54100       15.53700        6.22800
H          6.95200       15.01200        6.90400
C          5.23600       15.99200        6.40600
H          4.76100       15.77100        7.19800
C          4.63700       16.75600        5.43600
H          3.74200       17.05400        5.54900
C          5.34200       17.09200        4.29000
H          4.93700       17.64000        3.62800
C          6.63700       16.63100        4.10700
H          7.11200       16.85500        3.31700
C          9.37100       12.90900        6.17700
C          9.72200       12.12300        7.28200
H          9.70700       11.17700        7.20400
C         10.09300       12.69800        8.48700
H         10.35900       12.14400        9.21200
C         10.07900       14.08100        8.64500
H         10.33000       14.47000        9.47500
C          9.69700       14.89000        7.58100
H          9.66500       15.83300        7.68500
C          9.36100       14.30200        6.36100
C         12.20600       13.86100        1.29300
C         12.82500       12.61400        1.17300
H         12.99100       12.09200        1.95000
C         13.19900       12.13600       -0.07400
H         13.61400       11.28400       -0.14900
C         12.97000       12.89200       -1.21200
H         13.23900       12.56500       -2.06300
C         12.35300       14.11700       -1.10800
H         12.18900       14.63200       -1.88800
C         11.97000       14.60400        0.13500
H         11.54500       15.45100        0.19800
C         12.96600       13.89700        4.05000
C         14.30300       14.07500        3.67100
H         14.51100       14.45400        2.82400
C         15.32400       13.69700        4.53200
H         16.23000       13.81800        4.27200
C         15.03500       13.14500        5.76700
H         15.74000       12.88600        6.34700
C         13.72000       12.97200        6.15600
H         13.52300       12.59900        7.00600
C         12.67800       13.34500        5.29800
H         11.77400       13.22200        5.56600
B          7.51900       12.75400        3.79700
H          6.59600       13.48400        4.01900
B          6.91500       11.28000        2.97900
H          5.82200       11.26200        2.63200
B          8.09600       10.74000        1.77700
H          7.81300       10.42000        0.79000
B         10.21800       11.79700        3.46600
H         11.15400       11.84600        3.49400
B          9.04000       12.31900        4.73800
B          7.64700       11.16400        4.58600
H          7.04500       10.82300        5.48800
B          8.00600        9.92300        3.35600
H          7.64100        8.84200        3.45600
B          9.58600       10.33200        2.64600
H         10.19500        9.64900        2.10100
B          9.31400       10.56200        4.39500
H          9.78600        9.85400        5.13800
