113
C:\Users\Javier\OneDrive - Universitat de Barcelona\Tesi\4 - Contribucions\Treballs\3-PhD\chapter_1\cif\pc4p\JAWLOJ.pc4p.pdb
Ru         2.58600       10.21300        8.94400
Cl         3.83400       10.09800       10.99400
Cl         4.21100        8.76900        7.84700
O          4.35200       12.57200        8.61400
O          0.93400       11.99200       10.40400
P          1.52100       10.59900        6.81700
P          1.33700        8.21400        9.71900
C          3.78100       11.83500        8.69100
C          1.37400       11.45200        9.94700
C         -0.74800       12.23200        7.31400
H         -0.58300       12.22400        8.28000
H         -1.28800       11.44500        7.08900
C         -1.51600       13.51300        6.92900
H         -1.75700       13.46900        5.98000
H         -2.34500       13.55700        7.44900
C         -0.74100       14.73300        7.16800
H         -0.56500       14.82700        8.12700
H         -1.25900       15.51200        6.87600
C          0.58700       14.69400        6.40900
H          1.11300       15.49500        6.62000
H          0.41900       14.68200        5.44600
C          1.38300       13.41400        6.82500
H          2.22200       13.37500        6.31900
H          1.60700       13.46300        7.77600
C          0.58700       12.17000        6.56500
H          0.35500       12.19400        5.60100
C          3.98300       11.28200        5.46900
H          3.77200       12.23900        5.42300
H          4.40500       11.11100        6.33700
C          4.96100       10.93100        4.35900
H          5.24400        9.99800        4.45500
H          5.75700       11.49900        4.43100
C          4.31500       11.13000        2.98500
H          4.13000       12.08200        2.84400
H          4.93300       10.83300        2.28600
C          3.02600       10.34600        2.89000
H          3.22700        9.38700        2.94100
H          2.60300       10.52100        2.02400
C          2.05900       10.71900        4.01000
H          1.24300       10.18100        3.93000
H          1.81000       11.66400        3.92500
C          2.69700       10.47800        5.37000
H          2.98600        9.53200        5.35300
C          0.27500        9.35100        6.34900
H         -0.51700        9.46900        6.91300
H          0.00600        9.50600        5.42000
C          0.77800        7.89800        6.49000
H          0.75500        7.47000        5.60800
H          1.71000        7.91400        6.79000
C         -0.03000        7.07000        7.45400
H         -0.92300        6.92700        7.07800
H          0.39700        6.19200        7.54900
C         -0.17300        7.68500        8.80900
H         -0.64700        7.04200        9.37600
H         -0.75200        8.47000        8.71900
C          1.59600        5.36200       10.02800
H          0.76400        5.32300        9.51500
H          1.37100        5.34900       10.98200
C          2.48300        4.14200        9.68200
H          1.99800        3.31700        9.89600
H          2.67600        4.14100        8.72100
C          3.77800        4.17100       10.45300
H          4.34300        3.42100       10.17200
H          3.59300        4.07500       11.40900
C          4.50900        5.48600       10.20000
H          4.78500        5.52200        9.26200
H          5.32000        5.51000       10.75200
C          3.66000        6.71200       10.51700
H          4.15900        7.52700       10.30200
H          3.44300        6.72800       11.47400
C          2.35900        6.66500        9.69000
H          2.65000        6.56200        8.75100
C          0.69100        7.47800       12.45400
H          1.57200        7.05300       12.48600
H          0.03300        6.79500       12.20800
C          0.34900        8.03800       13.82600
H          1.05200        8.65500       14.11400
H          0.30000        7.30500       14.47600
C         -0.99700        8.77500       13.78400
H         -1.71200        8.12200       13.63800
H         -1.15300        9.19700       14.65400
C         -1.07200        9.77800       12.76700
H         -0.47600       10.51800       13.00200
H         -1.98700       10.12800       12.73000
C         -0.68800        9.24800       11.39100
H         -0.66000        9.99100       10.75200
H         -1.36900        8.61300       11.08400
C          0.69700        8.54400       11.42600
H          1.31200        9.22900       11.79000
C          0.00200        7.88200        2.37900
H         -0.58800        8.03900        3.09400
C         -0.13800        8.57400        1.18600
H         -0.82800        9.20500        1.08600
C          0.72800        8.33600        0.15800
H          0.64600        8.81200       -0.64800
C          1.69400        7.42200        0.30600
H          2.27500        7.25100       -0.41300
C          1.85600        6.73900        1.46000
H          2.55000        6.11000        1.54400
C          1.01000        6.97000        2.49800
H          1.12000        6.49700        3.30300
C          5.18000        6.57100        3.73500
H          5.72300        7.29100        3.47000
C          5.10100        5.46300        2.92700
H          5.62300        5.41200        2.14700
C          4.29100        4.46600        3.24300
H          4.19800        3.74300        2.64900
C          3.59700        4.46400        4.39700
H          3.05400        3.73500        4.63800
C          3.71700        5.60700        5.24100
H          3.24900        5.64100        6.05400
C          4.51200        6.65000        4.86800
H          4.58600        7.41400        5.41100
