63
C:\Users\Javier\OneDrive - Universitat de Barcelona\Tesi\4 - Contribucions\Treballs\3-PhD\chapter_1\cif\pc4p\JOZVOJ.pc4p.pdb
Pd         0.76800        5.28000        2.57000
P          2.60500        5.99500        3.82700
P         -0.52100        7.21700        2.87000
C          1.74000        3.54600        1.96400
C          3.06600        3.15900        2.11700
C          3.61500        2.05600        1.48100
C          2.84300        1.29000        0.64500
C          1.51000        1.62000        0.47900
C          0.96100        2.71500        1.13500
C         -0.44900        3.09400        1.00900
C         -1.39300        2.30000        0.36200
C         -2.71600        2.68400        0.30200
C         -3.09400        3.86400        0.89000
C         -2.16100        4.64600        1.54000
C         -0.80500        4.30500        1.63000
C          0.20000        8.79400        3.48300
C          1.63100        9.04400        3.00200
C          2.64600        8.83000        4.11100
C          2.50300        7.51200        4.84700
C          4.26700        6.21100        3.06100
C          4.22000        6.68500        1.61800
C          2.85400        4.75700        5.15300
C          4.16400        4.77200        5.91900
C         -1.19300        7.79700        1.26700
C         -2.37200        8.75200        1.35300
C         -1.92700        7.03900        4.03900
C         -1.56300        6.14600        5.19600
H          3.62400        3.67600        2.68700
H          4.52600        1.82900        1.62500
H          3.21700        0.54600        0.18900
H          0.96400        1.09100       -0.09200
H         -1.12100        1.48400       -0.04200
H         -3.35700        2.13900       -0.14000
H         -4.00100        4.14400        0.85000
H         -2.45100        5.45400        1.94400
H         -0.37300        9.54400        3.18400
H          0.19200        8.78600        4.47300
H          1.83400        8.43300        2.25100
H          1.70500        9.97400        2.66800
H          3.55500        8.87700        3.72200
H          2.56100        9.56700        4.76600
H          1.63000        7.51000        5.31500
H          3.20800        7.46500        5.54000
H          4.78200        6.86700        3.59500
H          4.75100        5.34800        3.09600
H          5.12400        6.67900        1.24100
H          3.86000        7.59700        1.58500
H          3.64500        6.08700        1.09500
H          2.12100        4.86700        5.80900
H          2.75100        3.85900        4.75100
H          4.13500        4.09700        6.62900
H          4.29900        5.65800        6.31700
H          4.90300        4.57400        5.30700
H         -0.46500        8.24500        0.76800
H         -1.46900        7.00600        0.74000
H         -2.63600        9.02700        0.44900
H         -2.11500        9.54300        1.87200
H         -3.12500        8.30200        1.79000
H         -2.18500        7.93100        4.38200
H         -2.70600        6.65800        3.56300
H         -2.33600        6.05200        5.79300
H         -0.81500        6.54000        5.69100
H         -1.30300        5.26400        4.85900
