87
C:\Users\Javier\OneDrive - Universitat de Barcelona\Tesi\4 - Contribucions\Treballs\3-PhD\chapter_1\cif\pc4p\KAKFOS.pc4p.pdb
Ru         3.01300        4.41200        5.13900
Cl         1.83100        6.54800        5.13800
Cl         1.05500        3.34100        4.03400
P          4.10000        4.78500        3.16200
P          4.65300        5.41900        6.36600
N          3.59900        2.38900        5.33300
N          2.00200        3.78400        6.92800
C          5.52300        5.95000        3.12400
C          5.16600        7.38700        3.55600
C          5.72200        7.75500        4.92600
C          4.94900        7.22900        6.12900
C          0.97500        4.41200        7.52700
C          0.37100        3.92200        8.66000
C          0.79900        2.72600        9.19300
C          1.82400        2.05300        8.56000
C          2.41700        2.61000        7.44400
C          3.57400        1.97100        6.75200
C          3.18000        5.37700        1.67500
C          1.84000        5.72000        1.75100
C          1.16800        6.16600        0.61100
C          1.82200        6.29500       -0.58400
C          3.15100        5.95700       -0.67300
C          3.82600        5.49300        0.44500
C          4.85000        3.24600        2.47400
C          4.00700        2.19600        2.11600
C          4.53200        0.99300        1.67300
C          5.89100        0.82100        1.58500
C          6.73400        1.84000        1.93100
C          6.22200        3.05000        2.36900
C          6.37300        4.75400        6.43500
C          6.75700        3.67000        5.66700
C          8.04600        3.16100        5.71600
C          8.97200        3.71800        6.55900
C          8.61100        4.79200        7.33700
C          7.33200        5.31800        7.27200
C          4.25200        5.45500        8.16500
C          4.79000        4.54800        9.07000
C          4.42700        4.56900       10.40800
C          3.51700        5.49000       10.85600
C          2.98100        6.39800        9.98300
C          3.33500        6.38700        8.64300
Cl         9.47700        5.18900        2.51900
Cl         9.73100        7.57400        4.24800
C         10.14200        5.85500        4.03500
Cl         9.44500        5.41500        2.56400
Cl         9.67200        7.38000        4.58600
C         10.14200        5.85500        4.03500
H          3.00000        1.92300        5.00800
H          4.31500        2.12800        4.94800
H          6.19900        5.61200        3.70000
H          5.88700        5.94000        2.24800
H          5.51300        7.94800        2.93200
H          4.25100        7.52200        3.56000
H          5.71000        8.69200        5.04500
H          6.68300        7.47100        4.97600
H          5.37600        7.51700        6.93000
H          4.06200        7.60900        6.17100
H          0.72200        5.17700        7.09900
H         -0.28700        4.41900        9.05900
H          0.41200        2.37500       10.00100
H          2.11800        1.27600        8.87200
H          4.39500        2.27600        7.16100
H          3.54100        1.01300        6.84400
H          1.40800        5.67000        2.57000
H          0.25300        6.35100        0.69400
H          1.34800        6.62800       -1.33800
H          3.62100        6.03600       -1.48900
H          4.72000        5.28000        0.37400
H          3.10800        2.30700        2.16300
H          3.96500        0.32700        1.42300
H          6.25100        0.01500        1.35400
H          7.60700        1.69600        1.86500
H          6.82200        3.70800        2.58600
H          6.14800        3.30500        5.06900
H          8.26300        2.45000        5.16900
H          9.80800        3.37600        6.60800
H          9.20800        5.13100        7.91600
H          7.09100        6.03900        7.83600
H          5.43000        3.92100        8.78500
H          4.82200        3.94100       11.01500
H          3.26700        5.48700       11.76100
H          2.41600        7.02200       10.25000
H          2.99100        7.00200        8.05100
H          9.78600        5.33800        4.80100
H         11.12700        5.75300        4.03200
H         11.12600        5.84100        3.93800
H          9.89700        5.18000        4.71700
