61
C:\Users\Javier\OneDrive - Universitat de Barcelona\Tesi\4 - Contribucions\Treballs\3-PhD\chapter_1\cif\pc4p\KEQHOD.pc4p.pdb
Pd        -0.09900       12.32100        5.30100
Cl        -1.64800       11.82600        3.57200
Cl         1.63100       12.56400        3.71300
Cl         0.37300        8.75200        5.48400
Cl         2.39300        7.48400        3.82600
Cl        -0.66000        7.61900        2.58900
Cl         1.32700        9.35500        1.38200
Cl        -0.79500       15.02200        1.07300
Cl        -2.73000       16.23300        3.17000
Cl        -0.50300       15.87100        5.22200
Cl         0.30500       17.39100        2.67200
P          1.50500       12.71000        6.82900
P         -1.88500       12.14400        6.65800
C          1.12800       12.60800        8.60400
H          1.97400       12.62100        9.11800
H          0.59800       13.40000        8.86900
C          0.34500       11.33900        8.95700
H          0.33800       10.73300        8.17500
H          0.80300       10.87200        9.70000
C         -1.08400       11.64000        9.36500
H         -1.07400       12.03800       10.27100
H         -1.58200       10.78600        9.42000
C         -1.83500       12.58000        8.43100
H         -1.42700       13.47900        8.51200
H         -2.76700       12.65100        8.75500
C          2.94000       11.57500        6.66000
H          3.03700       11.01000        7.46700
H          2.83300       10.98900        5.87000
C          4.14200       12.49000        6.49500
H          4.91300       12.10400        6.98300
H          4.38400       12.54000        5.53700
C          3.87900       13.86900        7.00600
H          4.51200       14.50800        6.59200
H          4.01000       13.89500        7.98800
C          2.46500       14.25500        6.66800
H          2.40800       14.60800        5.74500
H          2.13000       14.94300        7.29500
C         -2.77100       10.54500        6.61700
H         -2.59700       10.06300        5.76900
H         -2.50200        9.96800        7.37600
C         -4.25000       10.95200        6.72800
H         -4.83300       10.21000        6.42800
H         -4.47600       11.16800        7.66800
C         -4.45900       12.15800        5.85600
H         -5.32100       12.59000        6.08200
H         -4.49300       11.88300        4.90500
C         -3.30900       13.15400        6.06700
H         -3.55700       13.83700        6.74000
H         -3.08400       13.61100        5.21700
C          1.32900        8.89100        3.98300
H          1.89400        9.71200        4.04000
C          0.38700        9.04000        2.83900
H         -0.19700        9.83300        3.01500
C         -1.28100       15.14900        2.72300
H         -1.41700       14.23400        3.10400
C         -0.10300       15.82900        3.43100
H          0.69100       15.23100        3.32100
C         -1.23200       15.43100        3.64800
H         -1.41400       14.44900        3.66700
C         -0.16800       15.65500        2.69800
H          0.62500       15.10900        2.97000
