103
C:\Users\Javier\OneDrive - Universitat de Barcelona\Tesi\4 - Contribucions\Treballs\3-PhD\chapter_1\cif\pc4p\KIPNIJ.pc4p.pdb
Pd         3.17000        3.71100        3.45800
S          0.66100        2.34000        1.90400
S          0.84200        5.78500        4.56500
P          4.95000        5.10100        3.66900
P          4.55500        1.87600        3.50200
O         -0.30800        3.38400        1.74800
O          1.54600        2.12100        0.78700
O          1.54500        1.59700        5.39500
O          1.53000        6.48800        5.59500
O          2.15900        5.71700        1.12700
O          0.03400        4.67900        5.00200
N          1.51000        2.48000        3.28500
N          1.86900        5.34600        3.37500
C          6.47100        4.63700        2.72200
H          7.05600        5.41000        2.71200
H          6.92700        3.94300        3.22500
C          6.33600        4.14700        1.28800
H          6.00600        4.88200        0.74900
H          7.22100        3.92300        0.96200
C          5.44000        2.96000        1.05900
H          5.58400        2.62400        0.16000
H          4.51500        3.24500        1.12300
C          5.68300        1.84300        2.04700
H          6.59800        1.89900        2.36100
H          5.57800        0.99500        1.59000
C          3.75700        0.24600        3.38600
C          3.64800       -0.60400        4.47800
H          3.99100       -0.35100        5.30500
C          3.02300       -1.83100        4.32600
H          2.94200       -2.38800        5.06600
C          2.53000       -2.24600        3.14700
H          2.11900       -3.07600        3.07300
C          2.64300       -1.42600        2.05100
H          2.31900       -1.70900        1.22700
C          3.23000       -0.18800        2.16600
H          3.27800        0.36700        1.42300
C          5.51600        1.79500        5.02800
C          4.83500        2.00500        6.21600
H          3.92700        2.21100        6.19300
C          5.47600        1.91600        7.42400
H          4.99600        2.02800        8.21300
C          6.80400        1.66600        7.47300
H          7.24300        1.60900        8.29200
C          7.50000        1.49400        6.29500
H          8.41900        1.35000        6.32000
C          6.85500        1.53400        5.09500
H          7.33400        1.38300        4.31200
C          4.63900        6.82200        3.19100
C          4.22700        7.75000        4.11300
H          4.09300        7.48500        4.99300
C          4.00700        9.05700        3.77100
H          3.69600        9.65700        4.41000
C          4.24300        9.48400        2.49700
H          4.10900       10.37500        2.26500
C          4.68100        8.58200        1.56500
H          4.84900        8.86500        0.69600
C          4.87600        7.26500        1.90100
H          5.17000        6.66500        1.25500
C          5.47600        5.20600        5.39300
C          4.52400        5.31300        6.40800
H          3.62000        5.28700        6.19300
C          4.90900        5.45700        7.71700
H          4.26100        5.53700        8.38000
C          6.23600        5.48200        8.06100
H          6.49400        5.58800        8.94800
C          7.17600        5.35000        7.07600
H          8.07800        5.34600        7.30100
C          6.81300        5.22300        5.78100
H          7.47400        5.14700        5.13100
C          1.10400        1.61500        4.25900
C          0.15000        0.60300        3.70700
C         -0.37200       -0.51300        4.33300
H         -0.17600       -0.69600        5.22300
C         -1.19700       -1.35300        3.60000
H         -1.57400       -2.10100        4.00500
C         -1.46100       -1.08300        2.26700
H         -1.99000       -1.67100        1.77800
C         -0.96200        0.02400        1.66300
H         -1.16900        0.21400        0.77600
C         -0.15000        0.85000        2.37800
C          1.55100        5.91500        2.16500
C          0.38500        6.83200        2.29000
C         -0.23500        7.55700        1.28500
H          0.09100        7.53800        0.41500
C         -1.35400        8.31400        1.61100
H         -1.79400        8.80300        0.95300
C         -1.81100        8.33800        2.91400
H         -2.56200        8.84700        3.11400
C         -1.19900        7.64200        3.92400
H         -1.51500        7.67800        4.79800
C         -0.10500        6.88900        3.59300
O          7.34100        9.94000        6.46300
N          5.46000        9.97600        7.46800
C          6.54700        9.18500        7.00500
H          6.63300        8.26400        7.10000
C          4.23500        9.55200        8.03300
H          3.84500       10.27300        8.53300
H          4.39400        8.80700        8.61600
H          3.63400        9.28800        7.33200
C          5.24100       11.33600        7.34800
H          5.36700       11.75900        8.20000
H          4.33900       11.48900        7.04700
H          5.85500       11.70600        6.71100
