65
C:\Users\Javier\OneDrive - Universitat de Barcelona\Tesi\4 - Contribucions\Treballs\3-PhD\chapter_1\cif\pc4p\LEHHOV.pc4p.pdb
Ru        11.62300        1.83500        2.86200
Cl         9.25600        1.80700        2.58300
Cl        13.98500        1.92300        3.07500
Cl        11.91500        1.84100        0.48500
P         11.44900        1.66100        5.26000
P         11.67800       -0.65000        2.61500
O         11.01400        4.62200        2.97500
N         11.48800        3.57600        2.94800
C         12.95100        1.05600        6.09900
C         13.22600       -0.43600        6.17000
C         13.34900       -1.20200        4.85500
C         12.01000       -1.55000        4.16800
C         10.12200        0.72700        6.08600
C          9.15000        0.01900        5.38800
C          8.20900       -0.74600        6.06900
C          8.23000       -0.80400        7.42800
C          9.17400       -0.08700        8.15900
C         10.09700        0.68800        7.48700
C         11.23100        3.33500        5.92400
C          9.93500        3.87600        5.97600
C          9.75400        5.17400        6.42500
C         10.80500        5.92100        6.90300
C         12.05700        5.40700        6.81700
C         12.30000        4.14700        6.32600
C         10.08100       -1.29500        2.00800
C          9.26500       -2.09300        2.73100
C          8.03500       -2.51900        2.24600
C          7.69400       -2.13200        0.99300
C          8.49200       -1.34700        0.20200
C          9.71200       -0.94000        0.71900
C         12.90900       -1.45300        1.52200
C         12.57000       -2.70400        0.99300
C         13.52900       -3.43000        0.30100
C         14.76800       -2.94600        0.09100
C         15.11000       -1.72500        0.58200
C         14.16000       -0.95900        1.29000
H         12.91200        1.37200        7.00300
H         13.70000        1.45300        5.65000
H         12.50900       -0.83700        6.66700
H         14.05100       -0.55400        6.64800
H         13.81600       -2.02000        5.02800
H         13.86200       -0.66300        4.24600
H         12.01600       -2.49200        3.96800
H         11.30000       -1.36000        4.78100
H          9.12900        0.05800        4.42900
H          7.54100       -1.22800        5.57800
H          7.58500       -1.34100        7.88800
H          9.18000       -0.12500        9.11600
H         10.73600        1.19700        7.98500
H          9.18000        3.34300        5.70400
H          8.87400        5.56200        6.40000
H         10.65500        6.78500        7.28900
H         12.79800        5.93600        7.11000
H         13.20000        3.81700        6.25700
H          9.54000       -2.36900        3.60600
H          7.44900       -3.05900        2.77700
H          6.85100       -2.43200        0.63900
H          8.21600       -1.09000       -0.67900
H         10.30400       -0.40800        0.18100
H         11.68200       -3.05400        1.10200
H         13.30400       -4.31400       -0.01300
H         15.40500       -3.46200       -0.40900
H         15.99600       -1.38700        0.44700
H         14.39500       -0.09000        1.61200
O         11.86200        4.69000        3.08300
