73
C:\Users\Javier\OneDrive - Universitat de Barcelona\Tesi\4 - Contribucions\Treballs\3-PhD\chapter_1\cif\pc4p\LIBTUM.pc4p.pdb
Ru         8.11100        0.87100        5.79300
Cl         5.88900        1.83800        5.75000
Cl        10.45300        0.36600        6.21500
P          8.30500        1.09000        3.52200
P          7.12600       -1.18400        5.71500
N          8.75500        2.93100        6.13400
N          7.94100        1.01800        7.95300
C          9.02400        3.15200        7.57600
H          8.98900        4.12000        7.78000
H          9.92800        2.81900        7.80300
C          8.00100        2.42900        8.38600
H          8.23800        2.47500        9.34500
H          7.11500        2.85400        8.26500
C          6.75000        1.01300        2.51500
H          6.00700        1.37400        3.05800
H          6.85900        1.60200        1.72700
C          6.35500       -0.40000        2.01800
H          5.40400       -0.37700        1.74500
H          6.89000       -0.60500        1.21200
C          6.53700       -1.53200        3.01100
H          7.50700       -1.66900        3.14900
H          6.17700       -2.36100        2.60400
C          5.87400       -1.34700        4.39100
H          5.29400       -2.12600        4.58300
H          5.30600       -0.53700        4.37600
C          8.91300        2.79400        3.18100
C         10.26900        3.05500        3.41700
H         10.84700        2.34500        3.66800
C         10.77200        4.33800        3.28900
H         11.69000        4.50500        3.46900
C          9.94500        5.38400        2.90200
H         10.29500        6.26100        2.80100
C          8.61400        5.14000        2.66600
H          8.04500        5.85300        2.40400
C          8.08600        3.85300        2.81100
H          7.16200        3.70000        2.65600
C          9.50100        0.20300        2.43400
C         10.34500       -0.78500        2.92500
H         10.28300       -1.05800        3.83300
C         11.27700       -1.37000        2.07900
H         11.86500       -2.03200        2.42400
C         11.36900       -1.01600        0.75900
H         12.00600       -1.43800        0.19400
C         10.52700       -0.04200        0.25200
H         10.57800        0.20800       -0.66300
C          9.60900        0.56300        1.09400
H          9.04000        1.23900        0.74900
C          8.00800       -2.79800        5.59800
C          7.32100       -3.96200        5.16200
H          6.41700       -3.90000        4.88100
C          7.96900       -5.18700        5.14700
H          7.50600       -5.95800        4.84100
C          9.27100       -5.30000        5.57100
H          9.70100       -6.14600        5.57600
C          9.95000       -4.17100        5.99100
H         10.85500       -4.24300        6.27200
C          9.31800       -2.92500        6.00100
H          9.79700       -2.15800        6.29000
C          6.17500       -1.53400        7.26500
C          6.83900       -2.00900        8.40100
H          7.77100       -2.18300        8.36000
C          6.15400       -2.22600        9.58100
H          6.62000       -2.51200       10.35800
C          4.78700       -2.02300        9.62100
H          4.30500       -2.21800       10.41600
C          4.12100       -1.54500        8.52700
H          3.18300       -1.39600        8.56700
C          4.82000       -1.27700        7.35600
H          4.36200       -0.91400        6.60800
H          7.06000        0.55300        8.23100
H          8.53600        0.50100        8.43300
H          9.40000        3.21300        5.62200
H          8.06100        3.39300        5.99200
