76
C:\Users\Javier\OneDrive - Universitat de Barcelona\Tesi\4 - Contribucions\Treballs\3-PhD\chapter_1\cif\pc4p\LIHJOD.pc4p.pdb
Ru         7.44400       10.46600        3.49300
Cl         6.99200       11.21300        5.74600
Cl         7.49900       10.24800        1.07400
P          9.70600       10.48200        3.87400
P          7.37400        8.23000        3.95400
N          5.28200       10.56900        3.10600
H          5.16600       10.43100        2.20300
H          4.89900        9.85000        3.53400
N          7.45900       12.60400        2.96600
H          8.23100       12.96200        3.31700
H          7.53700       12.65400        2.05000
C         10.50200       12.06700        3.37300
C         10.89800       12.24200        2.05000
H         10.78300       11.53100        1.43000
C         11.45800       13.43900        1.62200
H         11.74400       13.53100        0.72200
C         11.59800       14.49800        2.50400
H         11.96300       15.32400        2.20600
C         11.20600       14.34700        3.81700
H         11.31000       15.06800        4.42600
C         10.65700       13.13600        4.25600
H         10.38800       13.04300        5.16200
C         10.82400        9.28400        3.02100
C         12.06500        8.94900        3.56400
H         12.36000        9.37000        4.36200
C         12.87400        8.00000        2.94500
H         13.69800        7.74900        3.34500
C         12.48200        7.41800        1.74300
H         13.04600        6.79000        1.30700
C         11.27100        7.76300        1.19200
H         10.99800        7.37100        0.37100
C         10.43700        8.68600        1.82900
H          9.59700        8.90500        1.44200
C         10.25500       10.40400        5.63900
H         11.19200       10.72500        5.67200
H          9.71000       11.05500        6.14800
C         10.20200        9.07300        6.39300
H         10.41300        9.25000        7.34400
H         10.91700        8.48900        6.03700
C          8.88200        8.29800        6.33600
H          8.13100        8.93400        6.44400
H          8.85000        7.66100        7.09400
C          8.69300        7.51700        5.01600
H          8.46600        6.57700        5.22600
H          9.54700        7.51700        4.51500
C          7.35200        7.06900        2.52300
C          8.36000        6.13400        2.26800
H          9.13000        6.10700        2.82500
C          8.24400        5.24200        1.20000
H          8.95000        4.63100        1.02000
C          7.11800        5.24000        0.40700
H          7.03100        4.60800       -0.29800
C          6.11200        6.16400        0.64300
H          5.33600        6.17200        0.09300
C          6.23600        7.08000        1.68100
H          5.55000        7.72400        1.82100
C          5.90000        7.56500        4.87500
C          5.55700        6.21200        4.76700
H          6.08600        5.64000        4.22400
C          4.46200        5.69300        5.43600
H          4.23400        4.77700        5.33000
C          3.69400        6.50700        6.25900
H          2.94000        6.15600        6.71700
C          4.04200        7.83300        6.40300
H          3.53300        8.38800        6.98100
C          5.12900        8.37500        5.71400
H          5.34500        9.29400        5.81600
C          4.47800       11.76400        3.46500
H          4.47300       11.86700        4.45000
H          3.54200       11.62500        3.17000
C          5.01600       13.03500        2.83300
H          5.09500       12.88900        1.85800
H          4.35400       13.75800        2.97400
C          6.35200       13.50700        3.35500
H          6.53500       14.41400        3.00400
H          6.31200       13.56400        4.34300
