85
C:\Users\Javier\OneDrive - Universitat de Barcelona\Tesi\4 - Contribucions\Treballs\3-PhD\chapter_1\cif\pc4p\LOSZAU.pc4p.pdb
Ru         1.34500        2.17000       17.31200
Cl        -0.03500        2.83500       19.06300
Cl         1.79000        4.42500       16.72200
Cl         2.43400        1.32400       15.41600
N         -0.42700        2.41800       16.01900
P          3.29700        2.16900       18.58200
C          4.83600        2.88500       17.86300
C          4.98300        3.22400       16.52400
H          4.26300        3.14000       15.94200
C          6.20500        3.68700       16.05200
H          6.30300        3.91400       15.15700
C          7.28300        3.81200       16.92200
H          8.10100        4.12300       16.60900
C          7.13700        3.47300       18.26400
H          7.85700        3.55700       18.84600
C          5.91400        3.01000       18.73300
H          5.81600        2.78300       19.63100
P          0.81200       -0.10000       17.93000
C          3.18800        3.11800       20.15500
C          2.93600        4.48300       20.06400
H          2.76800        4.87100       19.23600
C          2.94100        5.26800       21.21200
H          2.77200        6.18100       21.15100
C          3.19400        4.68800       22.45000
H          3.19700        5.21300       23.21600
C          3.44500        3.32400       22.53800
H          3.61500        2.93600       23.36600
C          3.44200        2.53900       21.39000
H          3.61000        1.62600       21.45100
C          3.94300        0.52900       19.10100
H          4.75800        0.66700       19.61200
H          3.29600        0.11800       19.69700
C          4.24500       -0.45100       17.96700
H          4.20800        0.02300       17.12200
H          5.14700       -0.79200       18.07500
C          3.29900       -1.59800       17.92100
H          3.13600       -1.88400       18.83500
H          3.74200       -2.33000       17.46500
C          1.91900       -1.38000       17.24000
H          1.44300       -2.22500       17.25700
H          2.08000       -1.16100       16.30700
C          0.65100       -0.60900       19.69100
C          0.81900        0.25500       20.76700
H          0.99700        1.15500       20.61900
C          0.72000       -0.23000       22.06500
H          0.83200        0.34800       22.78700
C          0.45500       -1.57500       22.29100
H          0.38900       -1.89800       23.15800
C          0.28700       -2.43700       21.21200
H          0.10900       -3.33800       21.36000
C          0.38600       -1.95400       19.91400
H          0.27400       -2.53200       19.19200
C         -0.82400       -0.59200       17.28400
C         -1.96300       -0.06300       17.87700
H         -1.88800        0.47900       18.62900
C         -3.21700       -0.34600       17.34700
H         -3.98000        0.00700       17.74500
C         -3.33100       -1.15700       16.22500
H         -4.16900       -1.34500       15.86800
C         -2.19000       -1.68600       15.63200
H         -2.26500       -2.22800       14.88000
C         -0.93600       -1.40300       16.16100
H         -0.17300       -1.75600       15.76300
C         -1.22600        3.51200       16.20300
H         -1.01600        4.10900       16.88300
C         -2.32900        3.76100       15.41500
H         -2.81700        4.54400       15.53800
C         -2.71900        2.84800       14.43200
C         -1.86900        1.76800       14.23500
H         -2.04800        1.15700       13.55400
C         -0.76400        1.59300       15.03100
H         -0.22000        0.85500       14.87100
C         -3.93600        3.06800       13.62500
H         -4.50900        2.30000       13.69700
H         -3.69200        3.19600       12.70600
H         -4.39100        3.84500       13.94400
C          6.81600        0.54400       13.39500
Cl         7.41800        1.70800       12.66500
Cl         6.53500       -0.62000       12.45900
Cl         5.81200        0.40700       14.09700
Cl         7.70300       -0.12300       12.45000
C          7.96900       -0.54400       14.05300
Cl         8.25000        0.62000       14.98900
Cl         8.97300       -0.40700       13.35100
Cl         7.08200        0.12300       14.99800
