122
C:\Users\Javier\OneDrive - Universitat de Barcelona\Tesi\4 - Contribucions\Treballs\3-PhD\chapter_1\cif\pc4p\LUNVOG.pc4p.pdb
Ru        13.47400        4.76100        4.92600
Cl        15.55200        4.40800        6.18600
P         14.56300        5.20800        2.90000
P         11.37700        5.11200        4.00600
N         13.51000        2.80600        4.45500
N         12.57800        4.33000        6.78900
N         13.40300        6.66800        5.78400
C         13.55300        1.70200        4.18200
C         13.56900        0.34100        3.71700
C         14.78600       -0.27800        3.48200
H         15.58200        0.17200        3.64700
C         14.79900       -1.56500        3.00200
H         15.61100       -1.99400        2.85100
C         13.63100       -2.21400        2.74600
H         13.65000       -3.08400        2.41800
C         12.42800       -1.59500        2.96700
H         11.63600       -2.04600        2.78100
C         12.38000       -0.30500        3.46400
H         11.56600        0.11500        3.62300
C         12.23000        3.15400        7.27200
H         12.42700        2.39100        6.78000
C         11.57500        3.01500        8.49800
H         11.34800        2.17000        8.81300
C         11.27300        4.11900        9.22600
H         10.80400        4.03900       10.02600
C         11.66900        5.37900        8.76600
C         11.41300        6.60700        9.44800
H         10.95300        6.59100       10.25500
C         11.82100        7.77800        8.95300
H         11.63800        8.55800        9.42700
C         12.53300        7.87000        7.71600
C         13.01300        9.06400        7.18900
H         12.86900        9.86900        7.63300
C         13.69800        9.03800        6.01000
H         14.04700        9.82200        5.65300
C         13.87300        7.82600        5.34100
H         14.34600        7.83100        4.54000
C         12.76400        6.68400        6.99700
C         12.33700        5.43400        7.53600
C         16.02400        6.33600        2.79300
C         16.42900        6.84700        1.56600
H         15.91400        6.68000        0.80900
C         17.58100        7.59500        1.45100
H         17.83100        7.93200        0.61900
C         18.35800        7.84800        2.54800
H         19.13500        8.35300        2.46800
C         17.97800        7.34800        3.76400
H         18.50100        7.51400        4.51400
C         16.81600        6.59300        3.88600
H         16.57200        6.25800        4.71800
C         15.36100        3.71400        2.17200
C         14.95700        3.14200        0.97400
H         14.22500        3.48800        0.51700
C         15.64400        2.05300        0.46100
H         15.37800        1.67300       -0.34500
C         16.71100        1.54000        1.13800
H         17.17100        0.81500        0.78100
C         17.11900        2.07800        2.33600
H         17.84400        1.71700        2.79200
C         16.43000        3.16400        2.85500
H         16.69000        3.52700        3.67000
C         13.53700        5.82700        1.51200
H         14.08600        5.85400        0.71200
H         12.82200        5.19300        1.35300
C         12.91400        7.21500        1.71900
H         13.37900        7.65400        2.44700
H         13.06600        7.74100        0.91800
C         10.71000        4.09900        2.63700
C         11.43600        3.09500        2.03100
H         12.32200        2.94800        2.27700
C         10.83800        2.29900        1.04300
H         11.31800        1.60500        0.65100
C          9.56600        2.53500        0.66100
H          9.17200        1.99800        0.01300
C          8.85400        3.55900        1.21600
H          7.99000        3.73300        0.91900
C          9.40000        4.33700        2.21300
H          8.89900        5.01800        2.60000
C         10.02900        4.62600        5.18600
C          9.55800        3.32000        5.27100
H          9.90100        2.66500        4.70800
C          8.57600        2.99600        6.20000
H          8.26000        2.12200        6.25700
C          8.06400        3.97500        7.04300
H          7.40700        3.75700        7.66400
C          8.53500        5.28100        6.95800
H          8.19300        5.93600        7.52100
C          9.51700        5.60500        6.02900
H          9.83300        6.47900        5.97300
C         11.01600        6.82400        3.43200
H         10.05900        6.96600        3.50900
H         11.44400        7.43800        4.04900
C         11.43000        7.22200        2.02300
H         10.99000        6.62300        1.39900
H         11.09100        8.11600        1.85000
P          7.74700        5.28200       11.88200
F          7.17800        4.20700       12.75900
F          8.38500        6.39100       11.04200
F          8.45600        4.41200       10.90200
F          6.49700        5.32400       11.05500
F          7.08000        6.09600       12.93500
F          9.04900        5.08500       12.72800
O          4.37600        3.86300        9.40700
H          4.46800        4.02700        8.57900
H          5.08200        4.12200        9.80300
C         10.06200        5.06900        5.27600
C          9.68700        6.18400        6.01600
C          8.71300        6.06900        7.00000
C          8.11300        4.83800        7.24300
C          8.48900        3.72400        6.50400
C          9.46300        3.83900        5.52000
F          6.99400        4.01800       12.30600
F          8.46800        6.58400       11.69200
F          7.23900        5.02000       10.50900
F          6.50400        6.25300       12.09400
F          8.29300        5.64200       13.26900
F          8.95700        4.39700       11.59500
H         10.08800        7.00700        5.85200
H          8.46200        6.81600        7.49500
H          7.46100        4.76200        7.90300
H          8.08700        2.90100        6.66700
H          9.71500        3.09300        5.02400
