223
C:\Users\Javier\OneDrive - Universitat de Barcelona\Tesi\4 - Contribucions\Treballs\3-PhD\chapter_1\cif\pc4p\MILTUZ.pc4p.pdb
Rh         9.37600        3.61000        5.05000
P          8.75800        5.12400        6.70900
C          9.72600        4.76000        8.25700
H          9.32000        3.93800        8.65600
C          9.66200        5.84100        9.33800
H         10.10100        6.66500        9.00800
H          8.71600        6.05500        9.53600
C         10.35500        5.37200       10.61000
H          9.87800        4.58500       10.97600
H         10.32400        6.09200       11.28900
C         11.81100        5.00000       10.32100
H         12.30900        5.81100       10.04700
H         12.23100        4.64700       11.14500
C         11.90100        3.95700        9.22200
H         11.49100        3.11300        9.53800
H         12.85300        3.77600        9.01900
C         11.19400        4.41500        7.95100
H         11.23200        3.69600        7.27200
H         11.65300        5.21100        7.58400
C          6.98200        4.56500        7.10400
H          7.02300        3.59400        7.33900
C          6.32700        5.28800        8.27500
H          6.29400        6.25900        8.08900
H          6.86500        5.14800        9.09400
C          4.91200        4.75700        8.49100
H          4.96100        3.81000        8.77800
H          4.48000        5.27100        9.21900
C          4.05300        4.85100        7.24100
H          3.16800        4.44400        7.41300
H          3.91400        5.80300        7.00500
C          4.72800        4.13400        6.08600
H          4.17600        4.23700        5.27000
H          4.79200        3.16800        6.29200
C          6.12600        4.69100        5.82700
H          6.06300        5.64300        5.56000
H          6.55300        4.19100        5.08700
C          9.33800        6.95800        6.57900
H          9.20600        7.36800        7.47000
H         10.31300        6.94300        6.41200
C         10.13700        6.86200        3.69200
H         10.80500        7.02800        4.40600
H         10.43700        7.32600        2.87100
C          8.73200        7.88900        5.57500
H          9.21700        8.75100        5.61600
H          7.79300        8.06200        5.83400
C          8.75000        7.39800        4.13100
H          8.48900        8.14300        3.53300
H          8.07800        6.67700        4.02600
C          9.50800       -0.03100        4.78300
H         10.02500       -0.56600        4.13000
H          9.01400       -0.62500        5.40300
C          8.17800        1.84100        5.33800
H          7.22900        1.87800        5.65000
C          9.27200        1.84300        6.22700
H          9.16000        1.86200        7.22200
C         10.38900        1.05500        5.53200
H         11.15000        0.73100        6.09400
C          8.61800        1.01700        4.12400
H          7.89100        0.67700        3.52700
C         10.71400        1.95500        4.33700
H         11.65300        2.12300        4.03800
C          9.67600        1.94500        3.47200
H          9.75900        2.10500        2.48900
C          8.13800       -5.58900        4.62100
C          8.03600       -6.11900        3.35300
H          8.63500       -5.82300        2.67700
C          7.07500       -7.07700        3.03900
C          6.18500       -7.52900        3.99700
H          5.52100       -8.17200        3.78100
C          6.29000       -7.02000        5.27400
C          7.26100       -6.08100        5.58500
H          7.33000       -5.76500        6.47800
C          6.97300       -7.59400        1.64400
C          5.34300       -7.46900        6.33200
C          9.81300       -3.55800        3.79200
C         11.11200       -3.05800        3.69500
H         11.77300       -3.35600        4.31000
C         11.45700       -2.14000        2.72300
C         10.51500       -1.65300        1.84000
H         10.75100       -1.01900        1.17300
C          9.21700       -2.11900        1.95100
C          8.87100       -3.03900        2.92200
H          7.96600       -3.32100        2.99300
C          8.19000       -1.58100        1.00600
C         12.86300       -1.61900        2.64400
B          9.37600       -4.56700        5.05000
F          8.22400       -7.88400        1.18200
F          6.24200       -8.63700        1.43800
F          6.66700       -6.58600        0.75700
F          5.82400       -7.97700        7.39100
F          4.25500       -8.11300        5.83300
F          4.75500       -6.35800        6.95200
F          7.10000       -2.36700        0.91300
F          7.79000       -0.36400        1.25200
F          8.68400       -1.54100       -0.25700
F         13.10500       -0.96000        1.50100
F         13.13500       -0.83100        3.63800
F         13.76000       -2.62100        2.66000
C          4.65000        5.58200        6.44100
H          4.51200        6.41000        6.96900
H          4.07900        5.63400        5.63400
C          7.01700        5.37000        7.26900
H          6.95900        6.22300        7.79000
C          6.59300        4.21200        8.16400
H          7.13400        4.22500        8.99100
H          6.77300        3.35900        7.69500
C          5.10300        4.27200        8.53800
H          4.85500        3.46000        9.04600
H          4.93700        5.06000        9.11400
C          4.24900        4.37000        7.27500
H          4.36000        3.54700        6.73700
H          3.29400        4.44500        7.52900
C          6.11900        5.47700        6.02700
H          6.37400        6.27500        5.50100
H          6.24700        4.67800        5.45700
F         13.39700       -1.59300        1.42200
F         12.89900       -0.30700        3.01600
F         13.72200       -2.17600        3.45800
F          8.04700       -7.63800        0.92900
F          6.54600       -8.90300        1.68900
F          5.94100       -7.03100        1.02400
F          6.06100       -7.63800        7.51800
F          5.09700       -8.87400        6.26600
F          4.29800       -6.77000        6.43100
F          6.97900       -1.60300        1.47900
F          8.34100       -0.14300        1.02200
F          8.34600       -1.81500       -0.24200
P          9.99300        5.12400        3.39000
C          9.02500        4.76000        1.84200
H          9.43100        3.93800        1.44300
C          9.08900        5.84100        0.76100
H          8.65000        6.66500        1.09100
H         10.03500        6.05500        0.56300
C          8.39600        5.37200       -0.51100
H          8.87400        4.58500       -0.87600
H          8.42700        6.09200       -1.19000
C          6.94000        5.00000       -0.22200
H          6.44200        5.81100        0.05300
H          6.52100        4.64700       -1.04600
C          6.85000        3.95700        0.87700
H          7.26000        3.11300        0.56100
H          5.89800        3.77600        1.08000
C          7.55700        4.41500        2.14800
H          7.51900        3.69600        2.82700
H          7.09800        5.21100        2.51500
C         11.76900        4.56500        2.99500
H         11.72800        3.59400        2.76000
C         12.42400        5.28800        1.82400
H         12.45700        6.25900        2.01000
H         11.88600        5.14800        1.00500
C         13.84000        4.75700        1.60800
H         13.79000        3.81000        1.32100
H         14.27100        5.27100        0.88000
C         14.69800        4.85100        2.85800
H         15.58400        4.44400        2.68600
H         14.83800        5.80300        3.09500
C         14.02300        4.13400        4.01300
H         14.57500        4.23700        4.83000
H         13.96000        3.16800        3.80700
C         12.62600        4.69100        4.27200
H         12.68800        5.64300        4.53900
H         12.19800        4.19100        5.01200
C          9.41300        6.95800        3.52100
H          9.54500        7.36800        2.62900
H          8.43900        6.94300        3.68700
C          8.61400        6.86200        6.40700
H          7.94700        7.02800        5.69300
H          8.31400        7.32600        7.22800
C         10.01900        7.88900        4.52400
H          9.53500        8.75100        4.48300
H         10.95800        8.06200        4.26500
C         10.00100        7.39800        5.96900
H         10.26300        8.14300        6.56700
H         10.67300        6.67700        6.07300
C          9.24400       -0.03100        5.31600
H          8.72600       -0.56600        5.96900
H          9.73700       -0.62500        4.69700
C         10.57300        1.84100        4.76100
H         11.52200        1.87800        4.44900
C          9.48000        1.84300        3.87200
H          9.59100        1.86200        2.87800
C          8.36200        1.05500        4.56700
H          7.60100        0.73100        4.00500
C         10.13300        1.01700        5.97500
H         10.86000        0.67700        6.57200
C          8.03700        1.95500        5.76300
H          7.09800        2.12300        6.06100
C          9.07500        1.94500        6.62700
H          8.99200        2.10500        7.61000
C         10.61300       -5.58900        5.47800
C         10.71500       -6.11900        6.74600
H         10.11700       -5.82300        7.42200
C         11.67600       -7.07700        7.06000
C         12.56600       -7.52900        6.10200
H         13.23100       -8.17200        6.31800
C         12.46100       -7.02000        4.82500
C         11.49000       -6.08100        4.51400
H         11.42200       -5.76500        3.62100
C         11.77800       -7.59400        8.45500
C         13.40800       -7.46900        3.76700
C          8.93800       -3.55800        6.30700
C          7.63900       -3.05800        6.40400
H          6.97900       -3.35600        5.78900
C          7.29400       -2.14000        7.37600
C          8.23700       -1.65300        8.25900
H          8.00100       -1.01900        8.92600
C          9.53400       -2.11900        8.14800
C          9.88100       -3.03900        7.17700
H         10.78500       -3.32100        7.10600
C         10.56100       -1.58100        9.09300
C          5.88800       -1.61900        7.45500
F         10.52700       -7.88400        8.91800
F         12.50900       -8.63700        8.66100
F         12.08400       -6.58600        9.34200
F         12.92700       -7.97700        2.70900
F         14.49600       -8.11300        4.26600
F         13.99600       -6.35800        3.14700
F         11.65100       -2.36700        9.18600
F         10.96100       -0.36400        8.84700
F         10.06800       -1.54100       10.35600
F          5.64600       -0.96000        8.59800
F          5.61600       -0.83100        6.46100
F          4.99100       -2.62100        7.43900
