150
C:\Users\Javier\OneDrive - Universitat de Barcelona\Tesi\4 - Contribucions\Treballs\3-PhD\chapter_1\cif\pc4p\NEWCAV.pc4p.pdb
Rh        14.94100       11.35100       12.68700
P         13.82200       10.97500       10.79900
P         16.19600       12.91700       11.72400
N         13.88400        9.91500       13.76000
N         15.91100       11.60600       14.50500
C         14.43200       11.64800        9.20000
H         13.73700       11.51000        8.50900
H         14.57100       12.62300        9.29500
C         15.74000       11.00600        8.72200
H         15.55100       10.06600        8.47200
H         16.03200       11.47600        7.90000
C         16.89500       11.01200        9.70800
H         17.69800       10.64900        9.25700
H         16.67300       10.40700       10.45900
C         17.23100       12.39400       10.27400
H         17.12500       13.06400        9.55300
H         18.18200       12.39800       10.54800
C         13.61000        9.20700       10.34600
C         12.69100        8.83900        9.35600
H         12.13900        9.50000        8.95400
C         12.58400        7.51800        8.96000
H         11.96100        7.27500        8.28700
C         13.38100        6.55000        9.54300
H         13.30000        5.64400        9.26900
C         14.29300        6.89300       10.51900
H         14.84300        6.22600       10.91300
C         14.40400        8.22300       10.92500
H         15.02700        8.45800       11.60100
C         12.07800       11.54700       10.86500
C         11.51100       12.40000        9.93000
H         12.04700       12.75700        9.23100
C         10.16900       12.73600       10.00700
H          9.79200       13.31000        9.35100
C          9.37900       12.25000       11.01600
H          8.46000       12.48800       11.06100
C          9.92900       11.41400       11.96600
H          9.38900       11.07600       12.67000
C         11.26700       11.06900       11.89100
H         11.63900       10.49700       12.55200
C         17.44900       13.58200       12.89000
C         18.61600       12.86200       13.13100
H         18.80200       12.08500       12.61500
C         19.51000       13.26000       14.11000
H         20.30700       12.76500       14.25200
C         19.24700       14.37000       14.87900
H         19.86000       14.64400       15.55100
C         18.08200       15.08300       14.66200
H         17.89100       15.84300       15.20000
C         17.18800       14.70500       13.66900
H         16.39900       15.21200       13.52300
C         15.34200       14.43600       11.16900
C         15.99800       15.43500       10.45600
H         16.90900       15.32200       10.21200
C         15.32000       16.59900       10.10200
H         15.78300       17.28200        9.63000
C         14.02300       16.77500       10.41600
H         13.57200       17.56800       10.15100
C         13.35700       15.80100       11.12100
H         12.44000       15.92100       11.34500
C         14.01500       14.64800       11.50500
H         13.55000       13.98900       12.00800
C         13.41700        9.29600       14.59500
C         12.80800        8.56700       15.69200
H         13.19200        8.87200       16.54100
H         12.97700        7.60800       15.58100
H         11.84100        8.73000       15.69500
C         16.50700       11.60000       15.47000
C         17.31400       11.56800       16.68100
H         17.11900       10.74800       17.18000
H         17.10000       12.34600       17.23600
H         18.26300       11.58700       16.44000
N          9.53300        5.59000       10.65700
C         10.07800        6.34400       11.30000
C         10.76000        7.30900       12.13500
H         10.58000        8.21300       11.80200
H         11.72500        7.13900       12.11200
H         10.43600        7.23000       13.05700
O          8.11800       10.93700       16.89200
O          9.82900       11.45400       15.37000
O          9.63800        9.14700       16.19700
O          8.04300        9.92000       14.65800
B          8.90900       10.37200       15.76600
C          8.65600       12.15600       17.17700
C          9.68000       12.46900       16.28400
C         10.39400       13.65600       16.37600
C         10.01000       14.50400       17.44400
H         10.47300       15.32700       17.54700
C          9.00100       14.20600       18.34700
C          8.29800       12.99200       18.20700
H          7.59800       12.75900       18.80700
C         11.48300       14.02900       15.36900
C         10.81300       14.27800       14.01300
H         10.32900       13.47200       13.73600
H         11.49800       14.49400       13.34400
H         10.18600       15.02600       14.09100
C         12.50800       12.89400       15.24000
H         12.93100       12.73500       16.11100
H         13.19400       13.14500       14.58600
H         12.05600       12.07700       14.94200
C         12.24200       15.30300       15.76500
H         11.61400       16.05400       15.81800
H         12.92800       15.49800       15.09200
H         12.66900       15.17200       16.63800
C          8.64800       15.12100       19.52700
C          9.36400       16.47300       19.45400
H         10.33400       16.33000       19.46700
H          9.10400       17.02200       20.22200
H          9.11400       16.93200       18.62500
C          7.14300       15.38100       19.56800
H          6.85900       15.78900       18.72400
H          6.93600       15.98700       20.30900
H          6.66800       14.53400       19.69600
C          9.07600       14.41900       20.83100
H          8.63900       13.54500       20.89100
H          8.81400       14.96900       21.59800
H         10.04900       14.29800       20.83200
C          9.12300        8.10500       15.48800
C          8.16600        8.55500       14.57800
C          7.46500        7.67800       13.76400
C          7.80900        6.31700       13.91000
H          7.35300        5.68300       13.37000
C          8.77200        5.84800       14.79200
C          9.43800        6.77600       15.61700
H         10.09000        6.49000       16.24600
C          6.40600        8.16800       12.77100
C          7.08000        9.04800       11.72000
H          7.48500        9.82600       12.15700
H          6.41200        9.35000       11.06900
H          7.77400        8.53400       11.26000
C          5.33600        8.97100       13.52000
H          4.88100        8.38900       14.16400
H          4.68300        9.32300       12.87800
H          5.75900        9.71600       13.99600
C          5.71400        6.99700       12.05100
H          6.38100        6.47900       11.55300
H          5.04200        7.34700       11.43000
H          5.27800        6.41900       12.71200
C          9.08400        4.35300       14.93500
C          8.42000        3.50900       13.83300
H          7.44500        3.59000       13.90200
H          8.67600        2.57000       13.94200
H          8.71400        3.82700       12.95400
C         10.60100        4.13400       14.83400
H         10.91200        4.40200       13.94500
H         10.80400        3.18600       14.98100
H         11.05400        4.67400       15.51500
C          8.54700        3.87500       16.29000
H          8.97400        4.38600       17.00900
H          8.74800        2.92300       16.40200
H          7.57700        4.01000       16.32200
