106
C:\Users\Javier\OneDrive - Universitat de Barcelona\Tesi\4 - Contribucions\Treballs\3-PhD\chapter_1\cif\pc4p\NORCUU.pc4p.pdb
Ru        -3.10900        2.39900       10.45200
P         -2.88100        0.86100       12.19800
P         -4.20300        3.99000       11.78300
N         -3.23300        3.60200        8.69000
N         -2.27800        1.03600        9.11300
N         -1.08800        2.76500       10.69200
O         -5.03300        1.92500        9.74500
O         -6.51000        2.38100        8.13800
O         -5.86400        4.01400        6.25600
H         -6.35000        3.51700        6.69200
C         -5.40000        2.53500        8.68600
C         -4.41400        3.45700        8.04700
C         -4.68400        4.11000        6.85100
C         -3.67600        4.88300        6.28300
H         -3.81500        5.32500        5.47600
C         -2.47900        4.98100        6.92900
H         -1.79200        5.48400        6.55800
C         -2.29100        4.33800        8.13200
H         -1.47400        4.42600        8.56700
C         -2.97800        0.15200        8.37000
H         -3.90400        0.12300        8.45400
C         -2.36900       -0.69200        7.50600
H         -2.87400       -1.29500        7.00900
C         -1.01400       -0.65400        7.36500
H         -0.58800       -1.22700        6.76800
C         -0.27700        0.23800        8.11400
H          0.64900        0.26800        8.03900
C         -0.93700        1.08500        8.97500
C         -0.27100        2.08000        9.83300
C          1.10800        2.29400        9.81000
H          1.64600        1.82900        9.21100
C          1.66500        3.20300       10.68600
H          2.57900        3.36900       10.67700
C          0.84500        3.85900       11.57100
H          1.20400        4.45600       12.18700
C         -0.50200        3.63100       11.54000
H         -1.04300        4.09700       12.13700
C         -1.65100       -0.41000       11.71400
C         -0.27600       -0.23000       11.93900
H          0.02000        0.50200       12.43000
C          0.62800       -1.12600       11.44300
H          1.53500       -0.98800       11.58300
C          0.21000       -2.23200       10.74000
H          0.83400       -2.84600       10.42300
C         -1.13800       -2.43100       10.50400
H         -1.42400       -3.16900       10.01600
C         -2.05500       -1.53500       10.99600
H         -2.96300       -1.68100       10.84700
C         -4.29600       -0.19600       12.73300
C         -4.10500       -1.16800       13.71700
H         -3.28300       -1.23400       14.14900
C         -5.12200       -2.02400       14.04800
H         -4.98900       -2.67600       14.69900
C         -6.34600       -1.92100       13.42000
H         -7.03700       -2.49900       13.65000
C         -6.54200       -0.97700       12.46800
H         -7.37100       -0.90800       12.05000
C         -5.51700       -0.11200       12.10700
H         -5.65500        0.52400       11.44300
C         -2.14400        1.42700       13.80800
H         -1.72100        0.65900       14.22200
H         -1.44000        2.06200       13.60000
C         -3.04200        2.06300       14.84400
H         -2.55000        2.11200       15.67900
H         -3.80100        1.47600       14.98700
C         -5.84300        4.44400       11.07000
C         -7.00600        3.80000       11.44600
H         -6.97500        3.13500       12.09500
C         -8.23200        4.13700       10.85900
H         -9.00600        3.70100       11.13100
C         -8.29900        5.07700        9.91400
H         -9.11700        5.29400        9.52900
C         -7.15400        5.72600        9.50500
H         -7.19600        6.37200        8.83900
C         -5.92700        5.40300       10.10300
H         -5.15600        5.85200        9.83600
C         -3.52900        5.67900       12.03700
C         -4.04300        6.52000       13.01800
H         -4.69900        6.21000       13.60200
C         -3.57800        7.82100       13.12600
H         -3.91400        8.37600       13.79200
C         -2.63900        8.29300       12.27000
H         -2.34700        9.17300       12.35000
C         -2.11000        7.49700       11.28700
H         -1.46100        7.82600       10.70900
C         -2.56500        6.18100       11.17200
H         -2.21700        5.63300       10.50600
C         -4.69600        3.50600       13.48200
H         -5.36900        4.13200       13.79400
H         -5.11400        2.63000       13.43900
C         -3.56900        3.45200       14.52300
H         -2.83000        3.99300       14.20400
H         -3.89300        3.85400       15.34500
P          4.50500        0.27800        8.89000
F          3.44200        0.76500        7.79600
F          4.61100        1.70200        9.55700
F          5.48900        0.73200        7.75500
F          5.62500        0.06800       10.06300
F          3.28600       -0.23500        9.54500
F          4.96500       -1.20500        8.33300
F          5.17400       -0.01700        7.63500
F          3.30000        0.59600        8.10100
F          5.25800       -0.52200        9.80000
F          4.55300        1.67000        9.53600
F          5.98400        0.11100        8.74700
F          3.52900       -0.61200        9.48300
