105
C:\Users\Javier\OneDrive - Universitat de Barcelona\Tesi\4 - Contribucions\Treballs\3-PhD\chapter_1\cif\pc4p\NORCOO.pc4p.pdb
Ru         8.02500        3.78900       14.48000
P          8.69000        2.27500       12.84100
P          8.47500        2.51000       16.31800
N          6.05600        3.23900       14.67100
O          9.72400        5.02100       14.08400
C         11.95800        4.18700       17.66700
H         12.48500        4.92700       17.46400
N          7.29000        5.32100       15.69600
O          7.89100        5.34400       12.91600
N          9.49100        8.80400       11.25400
H          8.98900        9.29600       10.76000
C         11.49500        2.32800       19.08100
H         11.72500        1.79300       19.80600
C          7.39000        1.94800       11.57800
C         10.11100        2.85500       11.82000
C          7.24900        2.85900       17.63900
C          9.07800        5.69800       13.20900
C          8.93400        7.71200       11.82400
H          8.03700        7.51800       11.67600
C          8.38000        0.67400       16.21900
H          8.15200        0.33200       17.09800
H          7.65500        0.43700       15.61900
C          5.26000        4.17300       15.28900
C          9.64000       -0.02600       15.74800
H          9.43700       -0.96400       15.60400
H         10.30400        0.02500       16.45300
C         10.85000        3.88700       16.87800
H         10.65400        4.40200       16.13000
C          6.53500        2.95200       11.24400
H          6.63300        3.78900       11.63900
C          5.96200        5.30500       15.87900
O         11.21000       10.19600       10.83200
C          5.46900        2.11100       14.22900
H          5.99600        1.46500       13.81900
C          9.67900        6.90100       12.61000
C         10.03900        2.81200       17.21800
C         12.27000        3.41000       18.72900
H         13.02600        3.61100       19.23300
C          7.48300        3.91100       18.51700
H          8.29500        4.36500       18.48700
C          9.27200        0.57400       13.28900
H          8.50100        0.02900       13.51300
H          9.69900        0.17600       12.51400
C          7.27300        0.69600       10.96700
H          7.87500        0.01900       11.17700
C         10.79300        9.18200       11.40900
C          8.03000        6.30600       16.24100
H          8.94900        6.32200       16.09900
C         10.24900        0.54700       14.45700
H         10.55800        1.44900       14.62800
H         11.01900        0.01200       14.20900
C          7.43300        7.30400       17.01600
H          7.95400        7.96300       17.41400
C          6.10100        7.30600       17.18200
H          5.69400        7.98200       17.67500
C          3.89900        3.98200       15.39100
H          3.37100        4.64500       15.77100
C          5.34200        6.31600       16.63000
H          4.42000        6.31100       16.74900
C         10.36900        2.05600       18.32900
H          9.81900        1.34700       18.57500
C         11.55400        8.34300       12.23500
H         12.44800        8.54800       12.38900
C         10.02100        2.96400       10.42500
H          9.21500        2.78800        9.99500
C         12.42000        3.55900       11.68600
H         13.22300        3.75200       12.11400
C         11.30400        3.18600       12.41200
H         11.36400        3.15700       13.33800
C          4.11800        1.87400       14.36100
H          3.74900        1.07400       14.06300
C         11.02100        7.24600       12.81400
H         11.55500        6.70900       13.35700
C          5.09300        2.52700       18.63500
H          4.29300        2.05600       18.67000
C          6.25100        0.46400       10.03900
H          6.16200       -0.36900        9.63400
C          6.50700        4.29300       19.44400
H          6.65600        5.01200       20.01500
C          6.06300        2.17600       17.72700
H          5.91100        1.45700       17.15800
C         11.13600        3.33900        9.68300
H         11.08400        3.38500        8.75400
C          5.52000        2.74600       10.32200
H          4.93700        3.43200       10.09600
C          5.39400        1.46700        9.73900
H          4.70700        1.31000        9.13200
C         12.31500        3.64000       10.32000
H         13.05400        3.90300        9.81900
C          3.32000        2.84000       14.94100
H          2.40300        2.70900       15.02300
C          5.32600        3.59600       19.50200
H          4.67700        3.83700       20.12200
P          5.37800       -2.11200       14.30200
F          5.77300       -0.96300       13.29900
F          4.94300       -3.26200       15.27000
F          4.97200       -3.02000       13.08600
F          6.80500       -2.65500       14.30800
F          3.87600       -1.55800       14.27600
F          5.67300       -1.16800       15.51500
Cl         1.93400       -1.27700       18.40700
C          2.07100       -2.60500       17.48000
H          2.59900       -2.40000       16.69300
H          1.19000       -2.88900       17.18800
Cl         2.84800       -3.91900       18.39600
