106
C:\Users\Javier\OneDrive - Universitat de Barcelona\Tesi\4 - Contribucions\Treballs\3-PhD\chapter_1\cif\pc4p\NORCII.pc4p.pdb
Ru         0.95800        7.94900        3.36200
P          2.78300        6.55300        3.26500
P         -0.47800        6.43700        4.37500
N          1.22200       10.03400        7.06000
H          1.84000        9.53700        7.39200
N          2.01700        9.52000        2.44000
N          0.62600        7.54400        1.37700
O         -1.88900       11.08100        3.68600
O          1.35500        8.74500        5.25500
C         -0.98300       10.29500        3.99900
C         -0.30300       10.51600        5.31300
C          0.76100        9.72200        5.80500
C          0.77400       11.06600        7.81200
H          1.14800       11.23100        8.64700
C         -0.20900       11.85300        7.34900
H         -0.51900       12.57400        7.84700
C         -0.74700       11.55800        6.10700
H         -1.44300       12.08800        5.79000
C          2.73700       10.46500        3.08100
H          2.86400       10.39500        3.99900
C          3.28800       11.53400        2.40500
H          3.76700       12.18600        2.86100
C          3.11200       11.61600        1.03100
H          3.47400       12.32500        0.55100
C          2.42200       10.66900        0.41600
H          2.32200       10.70800       -0.50700
C          1.84600        9.62100        1.11300
C          1.08400        8.54000        0.53100
C          0.81700        8.43300       -0.82800
H          1.08500        9.12000       -1.39400
C          0.19800        7.39500       -1.34100
H          0.04600        7.34600       -2.25700
C         -0.22700        6.37100       -0.51200
H         -0.65800        5.62500       -0.86500
C         -0.00100        6.47300        0.85500
H         -0.28900        5.79000        1.41700
C          3.95000        7.16000        1.99400
C          3.85800        6.78000        0.67000
H          3.23000        6.14000        0.42400
C          4.67600        7.32700       -0.29400
H          4.58800        7.06200       -1.18100
C          5.61500        8.26200        0.05000
H          6.17300        8.62300       -0.60100
C          5.73400        8.66400        1.34600
H          6.37100        9.30200        1.57700
C          4.90100        8.12100        2.33400
H          4.98200        8.40300        3.21500
C          3.89300        6.26600        4.70400
C          3.53000        6.60600        5.98300
H          2.73500        7.06600        6.13500
C          4.34700        6.26500        7.05800
H          4.07600        6.47100        7.92300
C          5.54800        5.63100        6.86200
H          6.11200        5.44700        7.57900
C          5.90400        5.26900        5.57900
H          6.69400        4.80100        5.43500
C          5.09800        5.59800        4.51500
H          5.36300        5.36900        3.65500
C          2.56100        4.82000        2.67800
H          1.92900        4.83600        1.94300
H          3.40900        4.51900        2.32100
C          2.07800        3.76500        3.68100
H          2.29700        2.88800        3.32900
H          2.57700        3.87900        4.50600
C         -1.22100        7.14400        5.89400
C         -0.53800        7.09700        7.11600
H          0.27700        6.65300        7.16600
C         -1.05200        7.69700        8.24100
H         -0.58200        7.66100        9.04300
C         -2.25600        8.34700        8.18100
H         -2.60700        8.74000        8.94800
C         -2.93300        8.41700        7.01600
H         -3.73700        8.88100        6.98000
C         -2.43900        7.80400        5.87500
H         -2.93300        7.83600        5.08900
C         -2.00700        5.96000        3.46700
C         -2.59500        4.70900        3.61300
H         -2.16000        4.05300        4.10900
C         -3.82600        4.42700        3.02900
H         -4.21600        3.58900        3.13700
C         -4.47300        5.41800        2.27600
H         -5.29600        5.24300        1.88100
C         -3.87700        6.65300        2.12600
H         -4.31000        7.31900        1.64300
C         -2.63800        6.90400        2.69000
H         -2.22400        7.72400        2.54000
C          0.16100        4.85000        5.05200
H          0.92400        5.04900        5.61600
H         -0.52600        4.46600        5.61900
C          0.58400        3.78900        4.01900
H          0.33100        2.91500        4.35500
H          0.08700        3.94100        3.20000
O         -0.64100        9.34200        3.24000
C          2.06800       -0.08600        4.23300
H          1.55300        0.25500        3.50000
H          2.22700       -1.02400        4.10200
H          2.90700        0.37800        4.28000
O          1.35400        0.10600        5.44300
H          0.80200        0.70300        5.34100
F          5.55900        0.19800        2.29600
F          4.92100        2.05600        3.56100
F          6.75500        2.04400        2.56200
F          5.87600        1.43100        0.64500
F          3.97900        1.35300        1.82500
F          5.23300        3.21700        1.60200
P          5.40900        1.71300        2.07800
