83
C:\Users\Javier\OneDrive - Universitat de Barcelona\Tesi\4 - Contribucions\Treballs\3-PhD\chapter_1\cif\pc4p\NUXLOJ.pc4p.pdb
C          8.47800       11.16100        7.65600
H          7.86000       10.40000        7.65100
H          8.48500       11.58200        6.77100
H          8.18600       11.81400        8.32700
C         10.31700        9.71500        6.88300
H         10.30400       10.19000        6.02600
H          9.69400        8.95900        6.84700
H         11.22200        9.38400        7.06100
C         10.87900       11.84500        8.04300
H         11.78300       11.50900        8.21500
H         10.61800       12.46300        8.75800
H         10.86300       12.31600        7.18400
C          9.89500       10.66900        8.00000
C         10.94700       11.41700       11.65500
H         10.76500       12.03600       12.39300
H         11.39400       11.89900       10.92700
H         11.52600       10.69300       11.97200
C          8.64900       11.98000       10.84000
H          9.04500       12.57500       10.17000
H          8.47600       12.48400       11.66300
H          7.80700       11.61600       10.49600
C          9.01000        9.98300       12.27300
H          8.14400        9.62600       11.98400
H          8.88300       10.54300       13.06700
H          9.61300        9.24100       12.49000
C          9.62100       10.82700       11.14100
C         11.70100        9.21000        9.78000
H         11.98900        8.79400        8.92900
H         12.26200       10.01300        9.92700
C         11.94900        8.21600       10.92700
H         12.71800        8.53300       11.46500
H         11.15400        8.20300       11.51700
C         12.23400        6.79200       10.44700
H         12.13800        6.17800       11.21900
H         13.17600        6.74700       10.14700
C         11.33700        6.28000        9.30800
H         11.61600        5.34900        9.11600
H         11.55500        6.81500        8.50400
C          9.74200        6.02700        6.69100
H          9.39000        5.66800        5.85000
H         10.69100        5.79500        6.77200
H          9.64100        7.00200        6.69900
C          9.26400        3.91900        7.89100
H         10.20800        3.77600        8.11400
H          9.07500        3.53500        7.01000
H          8.70000        3.48500        8.56400
C          7.47500        5.64700        7.61000
H          6.96100        5.34400        8.38800
H          7.20100        5.13900        6.81800
H          7.30900        6.60000        7.46000
C          8.96700        5.42300        7.86800
C          9.22800        6.12400       12.23500
H         10.14600        6.46100       12.30500
H          9.01000        5.60200       13.03500
H          8.60700        6.87900       12.15800
C         10.08700        4.05400       11.12900
H          9.85000        3.52100       11.91700
H         10.99800        4.40100       11.23200
H         10.04100        3.49300       10.32800
C          7.66800        4.67900       10.94300
H          7.03600        5.42200       10.84900
H          7.47800        4.19300       11.77100
H          7.57600        4.07200       10.17800
C          9.10300        5.23000       10.99000
C          4.75900        8.77600        8.25500
F          4.11400        9.91900        8.13900
F          3.87900        7.78600        8.12000
F          5.64600        8.68000        7.26800
O          6.63400        9.67500        9.84300
O          6.22200        7.33500        9.87600
O          4.52700        8.84500       10.83100
P          9.95900        9.72800        9.62200
P          9.51600        6.27200        9.47000
S          5.57700        8.65500        9.88700
Pd         8.30200        8.19100        9.64300
C          4.28700        3.06700        8.90700
F          4.60100        2.63100        7.69800
F          5.19000        2.57100        9.76000
F          4.44700        4.39700        8.89000
O          2.45900        3.24600       10.68100
O          2.57900        1.20300        9.38300
O          1.79000        3.25200        8.34900
S          2.57900        2.63400        9.38800
