129
C:\Users\Javier\OneDrive - Universitat de Barcelona\Tesi\4 - Contribucions\Treballs\3-PhD\chapter_1\cif\pc4p\OBAPAL.pc4p.pdb
Ru         3.12900        4.61500        1.78400
P          1.85700        2.94500        0.79000
P          2.44400        4.17900        3.95000
N          4.77200        3.35500        1.56200
N          3.86800        5.19500       -0.10000
C          5.14200        2.32300        2.34200
H          4.62500        2.13000        3.09100
C          6.24200        1.53800        2.09100
H          6.43900        0.82400        2.65500
C          7.05600        1.80300        1.00700
C          6.68300        2.85700        0.19000
H          7.20300        3.06800       -0.55100
C          5.54700        3.60300        0.46100
C          5.03500        4.61300       -0.47200
C          5.63400        4.90300       -1.69200
H          6.43800        4.49600       -1.91900
C          5.04000        5.79400       -2.57200
C          3.86300        6.37500       -2.17400
H          3.44400        6.98700       -2.73100
C          3.29400        6.06100       -0.96000
H          2.48700        6.45900       -0.72700
C          8.25600        0.93800        0.69000
H          8.69500        1.27500       -0.09300
H          8.86500        0.95400        1.43200
H          7.96800        0.03600        0.53200
C          5.67600        6.06600       -3.92000
H          6.49000        5.56300       -3.99800
H          5.07200        5.80600       -4.61800
H          5.87200        7.00200       -4.00000
C          1.10300        1.63400        4.04800
H          2.03100        1.40400        4.21400
H          0.57000        1.19100        4.72500
C          2.61000        2.45100       -0.81200
C          3.65100        1.52600       -0.86300
H          3.88600        1.06200       -0.09200
C          4.33900        1.28600       -2.03000
H          5.04400        0.68000       -2.04300
C          3.97400        1.95200       -3.18300
H          4.43300        1.78700       -3.97500
C          2.94700        2.84700       -3.17300
H          2.70700        3.28500       -3.95800
C          2.25700        3.11200       -1.99300
H          1.56000        3.72800       -1.99100
C          0.11300        3.24200        0.27000
C         -0.45400        4.48400        0.37600
H          0.02100        5.18000        0.76800
C         -1.75600        4.70400       -0.10600
H         -2.13700        5.55000       -0.04600
C         -2.46200        3.67300       -0.66300
H         -3.32200        3.82100       -0.98200
C         -1.91200        2.44800       -0.75100
H         -2.39900        1.75100       -1.12800
C         -0.63200        2.21600       -0.28600
H         -0.26600        1.36200       -0.34700
C          1.73800        1.28200        1.59000
H          1.55300        0.63300        0.89400
H          2.61000        1.06700        1.95400
C          0.71100        1.07800        2.69900
H         -0.12400        1.49200        2.42700
H          0.54500        0.12800        2.79500
C          3.65000        3.50400        5.15900
C          3.25300        2.75400        6.26200
H          2.35900        2.51900        6.35900
C          4.18500        2.34900        7.22500
H          3.91600        1.83900        7.95500
C          5.49500        2.71400        7.08300
H          6.11200        2.45700        7.72800
C          5.91100        3.44700        6.01300
H          6.80600        3.68400        5.93100
C          4.99400        3.84000        5.04300
H          5.28400        4.33200        4.31000
C          1.93800        5.70900        4.84000
C          0.71700        6.30600        4.55800
H          0.18300        5.94600        3.88800
C          0.27400        7.41200        5.23900
H         -0.56400        7.77200        5.05100
C          1.07200        7.98400        6.20100
H          0.78600        8.74800        6.64800
C          2.29000        7.42900        6.50300
H          2.82600        7.81000        7.15900
C          2.72200        6.29100        5.82300
H          3.54900        5.91900        6.03200
C          0.94400        3.15900        4.23100
H          0.63200        3.32500        5.13300
H          0.25200        3.46500        3.62500
O          1.70600        6.21400        1.70600
O          1.31800        8.34800        1.86200
H          5.06700        6.46600        2.22300
C          2.12300        7.40300        2.01700
C          3.49600        7.58600        2.57500
H          3.38200        7.91600        3.49200
C          4.23200        8.65300        1.83000
H          3.68800        9.44200        1.78100
H          5.05000        8.85500        2.28700
H          4.42700        8.34400        0.94300
N          4.20900        6.25100        2.32700
H          4.18000        6.27800        3.21600
O          6.26200        7.25200        4.72900
O          7.64900        8.05100        3.10800
O          8.48400        6.99800        4.85200
O          7.21000        5.81100        3.19800
Cl         7.47000        6.99500        4.01400
C          1.95600        7.44300       -5.43800
H          1.16600        7.69500       -4.95400
H          2.72000        7.89200       -5.06500
H          2.08100        6.49300       -5.37500
O          1.81100        7.81400       -6.72800
H          2.54400        7.79000       -7.09600
N          4.30200        6.35800        2.66800
H          4.49700        6.18900        3.52100
O          1.76800        6.07600        1.68200
O          1.56000        8.30400        1.40600
H          5.06300        6.16500        2.08500
C          2.14600        7.30800        1.70600
C          3.66200        7.56400        1.89100
H          4.02300        7.72300        0.99300
C          4.01000        8.79100        2.70400
H          3.59200        9.56100        2.31200
H          3.69100        8.67800        3.60300
H          4.96100        8.91200        2.71100
O          8.35200        6.13400        4.74600
O          7.24000        6.35600        2.82400
O          8.21400        8.15300        3.79000
H          1.32700        6.52800       -4.71100
O          0.37900        5.87100       -2.95500
H          0.21200        6.19800       -2.22200
C          1.00000        6.69700       -3.82500
H          0.36000        7.22800       -4.30600
H          1.83500        7.17000       -3.77300
