102
C:\Users\Javier\OneDrive - Universitat de Barcelona\Tesi\4 - Contribucions\Treballs\3-PhD\chapter_1\cif\pc4p\PAZWUJ.pc4p.pdb
Ru        -0.62300        2.65400       11.38400
P         -1.52500        0.69100       10.68800
P         -2.50700        3.39200       12.42000
S          0.41700        1.41200       13.21400
S          3.21600        0.58700       12.02500
S         -0.81400        4.30600        9.57800
S          0.96000        6.69200       10.54700
N          1.34700        1.97100       10.88700
N          0.44100        4.49500       11.80100
C          1.65200        1.36700       12.03300
C          2.35200        1.86500        9.94900
C          2.30200        2.37400        8.66700
H          1.57500        2.88200        8.38600
C          3.34500        2.11800        7.81300
H          3.32700        2.45800        6.94800
C          4.43300        1.35200        8.22900
H          5.13000        1.18600        7.63600
C          4.49400        0.83300        9.50900
H          5.21500        0.31300        9.77900
C          3.45300        1.11000       10.37400
C          0.19900        5.11800       10.68400
C          1.29000        5.20700       12.62800
C          1.74900        4.80400       13.87600
H          1.49600        3.98600       14.23800
C          2.59400        5.65600       14.56100
H          2.91900        5.39600       15.39300
C          2.97300        6.88600       14.04400
H          3.53100        7.44200       14.53700
C          2.52400        7.28800       12.80600
H          2.79200        8.10100       12.44500
C          1.66900        6.45400       12.11200
C         -0.27300       -0.63400       10.43600
C          0.48800       -0.63200        9.28700
H          0.34000        0.02000        8.64000
C          1.48700       -1.60100        9.08100
H          1.99500       -1.58500        8.30200
C          1.71500       -2.57100       10.02500
H          2.36400       -3.22200        9.89000
C          0.97700       -2.56300       11.15900
H          1.14400       -3.20800       11.80800
C         -0.00800       -1.63600       11.38100
H         -0.50600       -1.67100       12.16600
C         -2.39100        0.53000        9.07300
C         -2.16500        1.44100        8.06500
H         -1.62400        2.17700        8.23700
C         -2.71900        1.29600        6.80900
H         -2.56400        1.93800        6.15400
C         -3.49100        0.20800        6.53300
H         -3.84900        0.08300        5.68300
C         -3.73000       -0.69600        7.53500
H         -4.27400       -1.43100        7.35800
C         -3.19800       -0.55900        8.78300
H         -3.37600       -1.19300        9.44000
C         -2.66000       -0.13400       11.86500
H         -2.80200       -1.04800       11.57300
H         -2.23400       -0.17000       12.73600
C         -4.01100        0.54100       12.01500
H         -4.70700       -0.12900       11.92100
H         -4.12100        1.18100       11.29500
C         -4.05700        3.87100       11.55800
C         -5.13500        4.34200       12.29900
H         -5.06200        4.41400       13.22200
C         -6.31800        4.70400       11.67400
H         -7.03800        5.01300       12.17500
C         -6.42000        4.60400       10.31400
H         -7.21300        4.84400        9.89300
C         -5.37300        4.15500        9.57400
H         -5.45100        4.10200        8.64900
C         -4.19200        3.77600       10.18700
H         -3.48500        3.45500        9.67400
C         -2.13100        4.95000       13.30800
C         -2.28400        6.15900       12.66500
H         -2.66000        6.19100       11.81600
C         -1.87900        7.31800       13.28600
H         -1.98000        8.13600       12.85600
C         -1.32200        7.26500       14.55200
H         -1.05500        8.04900       14.97500
C         -1.16900        6.11300       15.15700
H         -0.78500        6.09800       16.00400
C         -1.56100        4.92100       14.57600
H         -1.44600        4.11400       15.02500
C         -3.15700        2.30300       13.77300
H         -2.40700        1.83400       14.17000
H         -3.53900        2.87100       14.46000
C         -4.20400        1.27200       13.36600
H         -5.06600        1.71700       13.34200
H         -4.24700        0.60000       14.06300
O          0.46200       -1.13100        3.16200
C          0.59100       -0.27000        5.36100
H          0.73700       -1.16800        5.66300
H          0.09000        0.21300        6.02300
H          1.43600        0.16300        5.22100
C         -0.15200       -0.29300        4.11500
H         -1.05300       -0.60700        4.28500
H         -0.21100        0.60700        3.76000
C         -0.07800       -1.13600        1.90800
H         -0.11000       -0.22900        1.56200
H         -0.98500       -1.47700        1.94400
C          0.72300       -1.96800        1.02800
H          1.59000       -1.57200        0.91300
H          0.29000       -2.04000        0.17400
H          0.82000       -2.84200        1.41300
