112
C:\Users\Javier\OneDrive - Universitat de Barcelona\Tesi\4 - Contribucions\Treballs\3-PhD\chapter_1\cif\pc4p\PEKWIM.pc4p.pdb
C          8.67900       10.80200        7.76900
C         10.09600       10.60100        7.48000
H         10.46700       11.40900        7.11800
H         10.19500        9.89100        6.83900
H         10.55800       10.36900        8.28700
C          4.57000        8.77200        6.66500
C          3.89300        7.73300        5.92800
H          3.19000        7.36500        6.46700
H          4.51900        7.04200        5.70100
H          3.52000        8.10300        5.12300
C          2.48900       11.35400        8.72100
C          1.03300       11.33000        8.77900
H          0.73200       10.42800        8.91100
H          0.67500       11.67100        7.95600
H          0.73400       11.87700        9.51000
C          7.68000        9.83900       11.10100
H          7.82300        8.99200       11.55100
H          8.35300        9.90800       10.40600
C          7.94400       10.93700       12.10300
H          8.80500       10.77400       12.51700
H          7.27100       10.88800       12.79800
C          7.94300       12.34200       11.53300
H          8.37600       12.32800       10.66400
H          8.46600       12.91600       12.11400
C          6.51900       12.94500       11.37400
H          6.50000       13.81300       11.80900
H          5.88600       12.37200       11.83500
C          6.02400        8.02300        9.68200
C          4.82000        7.35800        9.51300
H          4.02600        7.79000        9.73700
C          4.77100        6.08500        9.02300
H          3.95500        5.65400        8.90600
C          5.94400        5.45500        8.71100
H          5.91500        4.58600        8.38300
C          7.14000        6.05700        8.85900
H          7.92400        5.60300        8.65100
C          7.18900        7.35100        9.32800
H          8.01100        7.78000        9.40600
C          4.86100        9.63700       11.67900
C          3.80100       10.49000       11.80100
H          3.67100       11.14700       11.15600
C          2.91400       10.40200       12.86300
H          2.20900       11.00200       12.94700
C          3.10300        9.39700       13.79500
H          2.49400        9.29100       14.49100
C          4.16700        8.57000       13.69900
H          4.29800        7.92100       14.35300
C          5.06200        8.67000       12.65300
H          5.79000        8.09500       12.60000
C          4.50800       14.22000        9.85100
C          4.22200       15.22800        8.93200
H          4.78700       15.36100        8.20300
C          3.12500       16.02700        9.08600
H          2.95800       16.69800        8.46400
C          2.27000       15.85500       10.14000
H          1.52700       16.40500       10.23900
C          2.51800       14.87800       11.02800
H          1.93100       14.74500       11.73900
C          3.63300       14.06200       10.90600
H          3.79400       13.40300       11.54100
C          7.23800       14.32700        9.00800
C          7.92200       14.14500        7.83100
H          7.72500       13.40400        7.30300
C          8.88700       15.02300        7.41200
H          9.33500       14.88000        6.61000
C          9.18800       16.11500        8.18800
H          9.85900       16.70500        7.92200
C          8.49100       16.33800        9.35900
H          8.67700       17.09100        9.87200
C          7.52600       15.44900        9.77300
H          7.06500       15.60100       10.56700
C         11.24100       13.79600       10.12500
C         11.37800       14.98000       11.02300
H         11.17700       15.77900       10.52800
H         12.27700       15.02700       11.35600
H         10.76800       14.89600       11.75700
C         -0.98000       10.60100       12.92600
C         -1.32100        9.23000       13.21000
H         -0.55100        8.77700       13.56100
H         -1.60500        8.79700       12.40300
H         -2.03100        9.20400       13.85500
B          5.86400       14.06400        4.54000
H          6.79200       14.56200        4.86100
B          4.19000       14.49400        5.24300
H          4.05200       15.27200        6.00900
B          3.10700       12.96000        5.11600
H          2.27500       12.75200        5.80300
B          4.10700       11.61500        4.31100
H          3.92200       10.54300        4.48000
B          5.80400       12.29900        3.97000
H          6.70200       11.66600        3.93100
B          5.60200       13.63600        2.83000
H          6.38200       13.85100        2.08500
B          4.63300       14.90700        3.58500
H          4.79000       15.96100        3.31700
B          3.01700       14.29000        3.94200
H          2.12700       14.93400        3.91600
B          2.97700       12.59300        3.40800
H          2.05100       12.13300        3.03300
B          4.55100       12.19400        2.70800
H          4.65300       11.47900        1.87700
B          3.86400       13.80200        2.46800
H          3.51900       14.13100        1.47600
N          7.58200       10.97400        8.00400
N          5.08900        9.58500        7.24900
N          3.61700       11.35400        8.70400
N         11.11900       12.98700        9.45800
N         -0.71100       11.69700       12.71500
P          6.02500        9.75300       10.26700
P          5.97900       13.14400        9.64100
Ru         5.62100       11.22400        8.44700
Sn         5.13000       12.57900        6.18100
