87
C:\Users\Javier\OneDrive - Universitat de Barcelona\Tesi\4 - Contribucions\Treballs\3-PhD\chapter_1\cif\pc4p\PEVSUG.pc4p.pdb
Ru         3.41100       10.81900        4.73700
Cl         3.90700        8.83000        3.44400
Cl         3.81700        9.58700        6.82900
P          1.18700       10.18300        4.90400
P          3.17300       11.89700        2.71800
C          1.68600        7.40100        5.41100
H          2.58400        7.57400        5.24700
N          5.49700       11.26400        4.79000
C          0.75700        8.43100        5.35000
C          0.14300       11.01200        6.18700
C          0.83400       15.87200        2.35600
H          0.40200       16.69400        2.30100
N          3.49500       12.51100        6.00200
C         -0.96500        6.84100        5.94600
H         -1.85800        6.66200        6.13400
C         -0.57500        8.13400        5.63600
H         -1.21000        8.81400        5.61900
C          0.44000       10.78300        7.52400
H          1.14600       10.22200        7.74900
C         -1.64300       12.47100        6.90500
H         -2.34100       13.04800        6.69200
C         -0.30600       11.38300        8.52100
H         -0.09900       11.22000        9.41300
C          2.63300       14.17100        7.54200
C         -0.05700        5.83300        5.97600
H         -0.32900        4.96600        6.16900
C          2.58300       10.96000        1.23600
H          2.82400       11.48000        0.45400
H          3.09600       10.13700        1.19600
C         -0.90500       11.87500        5.88900
H         -1.11500       12.05500        5.00200
C          4.96800       13.83500        7.34600
H          5.83800       14.04200        7.60300
C         -1.35100       12.21700        8.20500
H         -1.85800       12.60600        8.88100
C          5.86000       12.21900        5.66300
C          7.18700       12.59200        5.82600
H          7.42100       13.24600        6.44500
C          4.78700       12.47900        2.07400
C          1.42100       14.84700        8.12100
H          1.56100       15.79500        8.13800
H          1.27400       14.52900        9.01600
H          0.65300       14.64500        7.58100
C          0.70100       15.09800        3.47300
H          0.15500       15.38100        4.17300
C          5.39800       13.58000        2.67300
H          4.94900       14.04700        3.34000
C          2.20900       13.46200        2.56700
C          7.80000       11.02000        4.13600
C          0.10800       10.39800        3.42400
H         -0.78600       10.10000        3.65500
H          0.05400       11.34500        3.22300
C          1.37800       13.89100        3.57100
H          1.26600       13.36400        4.32900
C          6.45700       10.68600        4.04800
H          6.20600       10.02600        3.44300
C          6.65200       13.98700        2.29200
H          7.05000       14.71600        2.70900
C          1.26700        6.10400        5.71900
H          1.89000        5.41400        5.75200
C          0.54400        9.66400        2.15700
H          1.21200        9.00100        2.39400
H         -0.22000        9.19300        1.78800
C          1.12000       10.57800        1.08600
H          1.00700       10.14500        0.22500
H          0.59400       11.39400        1.07100
C          2.48400       13.16700        6.59800
H          1.61900       12.92900        6.35800
C          1.61300       15.42700        1.31300
H          1.66800       15.92800        0.53100
C          4.75300       12.87700        6.37400
C          7.32000       13.32700        1.30500
H          8.17200       13.60000        1.05600
C          8.14900       11.98500        5.06000
H          9.04300       12.22500        5.16200
C          6.73000       12.25500        0.67700
H          7.17300       11.82200       -0.01500
C          8.81000       10.36900        3.22700
H          9.40900        9.83100        3.74900
H          9.30800       11.04700        2.76400
H          8.35600        9.81400        2.58800
C          2.31100       14.24800        1.42000
H          2.85500       13.97200        0.71900
C          5.47900       11.82000        1.07400
H          5.10100       11.07600        0.66400
C          3.91600       14.48100        7.93500
H          4.06500       15.12100        8.59400
