217
C:\Users\Javier\OneDrive - Universitat de Barcelona\Tesi\4 - Contribucions\Treballs\3-PhD\chapter_1\cif\pc4p\PUNQOH.pc4p.pdb
Ru        10.61400        3.41500        4.00200
S          9.78900       -0.11200        7.10800
P         11.38900        5.41900        2.98900
P          9.04100        2.70300        2.38000
O         12.51600        1.67300        2.44600
N         11.79800        3.89000        5.69800
N          9.28200        4.64500        5.14200
N         10.05300        1.86000        5.16300
C         11.82900        2.36500        3.04400
C         10.34700        6.26500        1.74100
C         10.38000        5.68100        0.32900
C         10.09300        4.18700        0.25500
C          8.77300        3.81800        0.96700
C         11.50300        6.72000        4.27800
C         10.41100        7.54800        4.55900
C         10.44200        8.42000        5.64300
C         11.55700        8.47200        6.44800
C         12.66500        7.70200        6.15500
C         12.64700        6.82800        5.06700
C         13.07500        5.48200        2.27700
C         14.00700        4.47900        2.41600
C         15.30000        4.62000        1.90700
C         15.66900        5.76600        1.28300
C         14.75500        6.79100        1.16100
C         13.46300        6.65000        1.63400
C          9.43100        1.08900        1.59600
C          9.84600        0.01500        2.38900
C         10.06500       -1.23200        1.82700
C          9.87900       -1.43100        0.47400
C          9.48500       -0.37900       -0.32600
C          9.26400        0.87700        0.23300
C          7.34400        2.37000        3.00100
C          7.13800        1.36400        3.94500
C          5.86400        1.07700        4.40500
C          4.76500        1.78000        3.91500
C          4.95900        2.76600        2.97500
C          6.24100        3.07300        2.51700
C         13.06600        3.54100        5.93400
C         13.72500        3.87000        7.11200
C         13.05200        4.54500        8.09500
C         11.68600        4.87900        7.90800
C         11.11000        4.54200        6.67700
C         10.89600        5.57800        8.87500
C          9.64000        5.99300        8.59200
C          9.77200        4.96100        6.38000
C          9.05400        5.73300        7.30400
C          7.81300        6.26300        6.89000
C          7.35300        5.98600        5.63100
C          8.10400        5.15500        4.79100
C          9.98200        1.05300        5.98800
H          9.41000        6.25300        2.06000
H         10.63100        7.21200        1.69200
H          9.71300        6.15900       -0.22600
H         11.27200        5.85200       -0.06300
H         10.84000        3.69000        0.67500
H         10.03900        3.91100       -0.69400
H          8.16500        3.38000        0.31900
H          8.33300        4.64500        1.28500
H          9.64100        7.51500        4.00400
H          9.69500        8.97700        5.82700
H         11.56400        9.04100        7.20900
H         13.44300        7.76800        6.69500
H         13.41400        6.30600        4.86500
H         13.76700        3.67800        2.86500
H         15.92200        3.90800        1.99800
H         16.54800        5.86200        0.93500
H         15.01700        7.60600        0.74700
H         12.83600        7.35500        1.51600
H          9.98100        0.14200        3.32100
H         10.34200       -1.95500        2.37700
H         10.02400       -2.29000        0.09400
H          9.36200       -0.51100       -1.25900
H          8.99700        1.59900       -0.32500
H          7.88000        0.87200        4.27600
H          5.73900        0.39700        5.05700
H          3.89000        1.58100        4.22800
H          4.21200        3.24300        2.63300
H          6.36300        3.76200        1.87500
H         13.53500        3.04900        5.27100
H         14.63500        3.62800        7.23500
H         13.49600        4.78900        8.89800
H         11.26100        5.75500        9.73400
H          9.14000        6.46100        9.25000
H          7.30200        6.80600        7.47900
H          6.53100        6.35400        5.32900
H          7.75700        4.94700        3.93200
Ru         5.63300        6.66300       11.61500
S          8.27600        9.63200        8.83100
P          4.07300        5.32800       12.73400
P          6.54500        7.58100       13.57100
O          3.82000        9.02100       11.27700
N          4.99700        5.99000        9.69500
N          6.86900        4.93600       11.32900
N          7.02200        7.75600       10.45800
C          4.49600        8.12200       11.48100
C          4.72000        4.18100       14.02200
C          4.86600        4.72600       15.44700
C          5.98700        5.73500       15.69900
C          5.75200        7.17300       15.17400
C          3.32000        4.20300       11.52200
C          2.21300        4.63900       10.78600
C          1.68700        3.83000        9.79000
C          2.24100        2.59100        9.52500
C          3.33000        2.15200       10.25200
C          3.88200        2.96000       11.24200
C          2.58300        6.00500       13.55200
C          1.60200        5.09100       13.96600
C          0.46000        5.52700       14.61900
C          0.27000        6.87600       14.87100
C          1.22600        7.78900       14.47300
C          2.37700        7.35900       13.81800
C          6.48500        9.40300       13.49800
C          5.40900       10.10500       14.04300
C          5.33500       11.48600       13.89700
C          6.32100       12.17400       13.21400
C          7.39300       11.48400       12.67300
C          7.48200       10.10700       12.81300
C          8.32300        7.28100       13.88200
C          9.21600        7.12700       12.83000
C         10.57900        6.98900       13.07700
C         11.05500        6.99900       14.37000
C         10.17800        7.11500       15.42900
C          8.82000        7.27000       15.19500
C          4.06200        6.51100        8.90600
C          3.73800        5.96900        7.65300
C          4.41000        4.86100        7.20600
C          5.42600        4.30300        7.98900
C          5.69000        4.90300        9.24100
C          6.23600        3.19000        7.58300
C          7.21500        2.70000        8.36300
C          6.68700        4.36000       10.08600
C          7.46300        3.25900        9.66200
C          8.44000        2.76900       10.52200
C          8.59900        3.31300       11.77400
C          7.76900        4.39100       12.13900
C          7.50800        8.55700        9.78100
H          4.12100        3.39300       14.05700
H          5.60800        3.86000       13.72600
H          4.00800        5.15200       15.70000
H          5.00300        3.95700       16.05500
H          6.81500        5.38600       15.28500
H          6.14400        5.78400       16.67600
H          6.08100        7.81100       15.85500
H          4.77600        7.31500       15.08200
H          1.82400        5.48700       10.96700
H          0.93800        4.12900        9.28600
H          1.87200        2.04200        8.84300
H          3.70400        1.29700       10.07600
H          4.64300        2.66300       11.72700
H          1.72300        4.16400       13.79700
H         -0.19600        4.89800       14.89500
H         -0.51500        7.17200       15.31700
H          1.09700        8.71400       14.64500
H          3.02900        7.99500       13.55000
H          4.72800        9.64000       14.51400
H          4.60000       11.96100       14.26900
H          6.26200       13.11700       13.11500
H          8.07100       11.95600       12.20500
H          8.22100        9.64000       12.44200
H          8.89500        7.11700       11.93700
H         11.18300        6.88600       12.35100
H         11.98900        6.92700       14.53200
H         10.50600        7.08900       16.32100
H          8.22200        7.36900       15.92700
H          3.59400        7.28300        9.20300
H          3.06100        6.36600        7.11800
H          4.18600        4.47200        6.36900
H          6.07500        2.78800        6.73700
H          7.74700        1.97700        8.05200
H          8.99900        2.05300       10.24300
H          9.25100        2.97400       12.37600
H          7.85800        4.74800       13.01400
S          5.37800        5.80200        0.08200
N          6.95300        6.71600        2.22200
C          6.30100        6.36200        1.31400
S         15.72700        1.50900        3.87900
N         16.72600        2.69000        6.22100
C         16.27600        2.20100        5.25400
O         12.54300        1.36500        2.93400
C         11.81700        2.18600        3.26900
N          5.12800        5.73200        9.75100
N          6.97300        4.87900       11.53600
C          4.19100        6.15200        8.90800
C          3.98000        5.55200        7.64900
C          4.77500        4.49900        7.28900
C          5.79600        4.04600        8.13300
C          5.93600        4.69400        9.38400
C          6.69000        2.97300        7.82000
C          7.63600        2.57300        8.68100
C          6.91800        4.25900       10.30400
C          7.77400        3.18300        9.97200
C          8.67000        2.76500       10.94600
C          8.68800        3.34100       12.19100
C          7.82100        4.41900       12.44900
H          3.64200        6.88400        9.16100
H          3.30100        5.87000        7.06600
H          4.63300        4.06900        6.45500
H          6.61200        2.53300        6.98200
H          8.22700        1.87200        8.43100
H          9.28100        2.06500       10.74800
H          9.27600        3.01900       12.86500
H          7.84200        4.83100       13.30600
S         16.31500        2.48500        5.91000
N         15.88500        1.13800        3.48800
C         15.96500        1.68600        4.52300
S          9.75200        1.63100        5.58700
S          9.51700        1.78500        5.80400
S          9.57200       -0.63600        6.33300
S         10.05400        0.50300        7.67000
N         11.16400        1.33300        7.96500
N         10.60500       -0.77500        5.83500
N         10.13000        1.80900        5.12800
N         10.16900        1.90700        5.27100
C         10.56400        1.41700        6.98100
C         10.19000        0.30400        5.83900
C          9.89100        0.81400        5.66600
C         10.09900        1.29100        6.24700
