106
C:\Users\Javier\OneDrive - Universitat de Barcelona\Tesi\4 - Contribucions\Treballs\3-PhD\chapter_1\cif\pc4p\PUNQIB.pc4p.pdb
Ru         1.74200        0.57600       11.49000
P          0.78900       -0.73000        9.79100
P          3.88700       -0.28300       11.17600
O         -0.20400        1.25200       12.04700
O          0.09300        3.38500       11.47400
O          2.21800        2.79700        9.51100
N          1.55000       -0.78100       13.15900
N          2.33900        1.79000       13.12100
C          1.15300       -2.05100       13.20000
C          1.14300       -2.81900       14.36700
C          1.53500       -2.26800       15.53800
C          1.93600       -0.91900       15.56400
C          1.94100       -0.21800       14.35500
C          2.33300       -0.24000       16.76000
C          2.70400        1.04700       16.74500
C          2.71700        1.79300       15.51400
C          2.34600        1.15500       14.33100
C          3.06700        3.15700       15.44600
C          3.00300        3.79500       14.24300
C          2.63400        3.09200       13.10200
C         -0.65600       -1.77900       10.23300
C         -1.53500       -1.40700       11.25300
C         -2.67500       -2.15100       11.51000
C         -2.96400       -3.28200       10.74700
C         -2.08800       -3.66800        9.74800
C         -0.94800       -2.93000        9.48800
C          0.06500        0.31100        8.47100
C         -1.06500        1.05800        8.77300
C         -1.65700        1.85300        7.81100
C         -1.14300        1.90400        6.53200
C         -0.02100        1.18100        6.22500
C          0.60000        0.38700        7.18200
C          1.84900       -1.87100        8.84300
C          2.39500       -3.08400        9.60600
C          3.84500       -2.96000       10.06300
C          4.10200       -2.10900       11.30800
C          4.89600        0.08300        9.68400
C          6.24800       -0.26900        9.73100
C          7.06100       -0.07100        8.62900
C          6.55000        0.48600        7.47200
C          5.21800        0.85000        7.41300
C          4.38900        0.64000        8.50800
C          5.01900        0.33600       12.46600
C          5.58100       -0.47400       13.45500
C          6.48100        0.07100       14.35500
C          6.79400        1.41200       14.32200
C          6.22600        2.23200       13.35800
C          5.36500        1.69300       12.42300
C         -0.60700        2.44600       11.89200
C         -2.05400        2.68900       12.26100
C          2.01000        1.93200       10.24500
H          0.86200       -2.45700       12.39200
H          0.86100       -3.72600       14.33600
H          1.54000       -2.78600       16.33400
H          2.33400       -0.71200       17.58400
H          2.96100        1.47300       17.55400
H          3.34400        3.62400       16.22600
H          3.21200        4.71900       14.18500
H          2.58900        3.55600       12.27500
H         -1.35000       -0.63700       11.77500
H         -3.26200       -1.89000       12.21000
H         -3.75400       -3.78300       10.91100
H         -2.27100       -4.44800        9.23800
H         -0.35800       -3.20500        8.79500
H         -1.43400        1.02300        9.64700
H         -2.42300        2.37000        8.03100
H         -1.56500        2.43800        5.86900
H          0.33700        1.22100        5.34600
H          1.38400       -0.10200        6.96300
H          1.33000       -2.20200        8.06800
H          2.61700       -1.35700        8.48900
H          1.82700       -3.23700       10.40300
H          2.31600       -3.88200        9.02600
H          4.37100       -2.58100        9.31700
H          4.19200       -3.87100       10.23700
H          5.03000       -2.28300       11.60600
H          3.50100       -2.43300       12.02500
H          6.61100       -0.64800       10.52300
H          7.97700       -0.32000        8.66900
H          7.11500        0.62000        6.71800
H          4.86900        1.24300        6.62100
H          3.47100        0.87800        8.45600
H          5.34900       -1.39300       13.50900
H          6.88900       -0.48800       15.00600
H          7.39700        1.77600       14.95900
H          6.42900        3.16000       13.34000
H          5.00400        2.24800       11.74300
H         -2.46600        3.27800       11.59500
H         -2.09800        3.11300       13.14300
H         -2.53200        1.83500       12.28400
O         10.47900       -0.02400        1.26400
O          8.43700        0.73500        0.83000
C          9.27100        0.18500        1.58400
C          8.89700       -0.26300        2.98100
H          8.01400        0.10000        3.21300
H          9.56200        0.07200        3.62000
H          8.86900       -1.23900        3.01700
O          6.88300        0.37900        1.46000
O          8.96300        1.01500        0.99600
C          8.12600        0.41400        1.70900
C          8.54100       -0.25000        3.00900
H          9.11000        0.36600        3.51800
H          9.03700       -1.06800        2.81200
H          7.74200       -0.46400        3.53300
O         11.44700       -0.30300        1.05800
O          5.71400        0.47900        0.98600
