93
C:\Users\Javier\OneDrive - Universitat de Barcelona\Tesi\4 - Contribucions\Treballs\3-PhD\chapter_1\cif\pc4p\QAYNOW.pc4p.pdb
Ru         3.09500        1.24600        4.15700
P          0.96800        1.11100        3.23600
P          4.13400        0.19400        2.36400
S          0.64600        2.66500        8.08500
S          4.62100        4.99000        1.67700
C          7.83500       -1.15400        3.53400
H          8.18900       -1.92200        3.92200
O          4.47000       -3.81600        7.54800
N          2.21200        2.12900        5.84800
O          8.72800        1.70800        6.80600
N          3.32400       -0.46200        5.38700
N          4.96700        1.58500        5.11900
C         -0.22200       -0.07500        3.97800
C         -0.54700       -1.28400        3.37800
H         -0.25000       -1.46200        2.51500
N          3.34200        3.00500        3.13800
C         -1.30100       -2.22500        4.04400
H         -1.49600       -3.03800        3.63800
C          2.24400       -3.44400        2.06200
H          1.51200       -3.85600        2.46100
C          6.94800        2.83400        5.59200
H          7.41700        3.63300        5.51400
C          1.57300        2.35400        6.77700
C          0.85000        0.69700        1.45300
H          1.19000       -0.20300        1.32200
H         -0.08500        0.69700        1.19700
C          4.55400       -0.59400        5.98000
C          6.71300        0.61500        6.41700
H          7.03500       -0.10700        6.90400
C          2.85000        1.02700       -0.11300
H          3.02600        1.49500       -0.94500
H          2.64600        0.10500       -0.33900
C          4.06200       -3.49200        0.54000
H          4.56800       -3.94100       -0.09800
C          3.69900       -1.52800        1.89300
C          0.43200        3.83600        3.87100
H          1.25700        3.84200        4.29800
C          7.49000        1.75300        6.26300
C          5.93000        0.03700        2.64700
C          2.95700       -4.10200        1.09200
H          2.69700       -4.94800        0.80800
C          4.13400        1.03700        0.71800
H          4.38500        1.96200        0.86200
H          4.83500        0.63400        0.18100
C         -0.33300        4.99400        3.83800
H         -0.02100        5.76600        4.25200
C          8.64100       -0.08500        3.29000
H          9.54500       -0.12200        3.50600
C          2.44800       -1.44800        5.62400
H          1.58500       -1.35300        5.28900
C         -1.51800       -0.75100        5.89100
H         -1.87700       -0.55500        6.72800
C          2.61500       -2.16400        2.45300
H          2.12000       -1.72700        3.10900
C          4.42600       -2.21000        0.93300
H          5.16700       -1.80400        0.54500
C         -0.73600        0.18300        5.24300
H         -0.55200        0.99400        5.65800
C          4.00100       -2.75000        6.85500
C          4.90300       -1.70800        6.69500
H          5.74900       -1.76600        7.07600
C          2.74200       -2.60500        6.33600
H          2.09800       -3.26500        6.45800
C          6.49300       -1.10500        3.20800
H          5.95700       -1.84900        3.36500
C         -1.55000        5.00900        3.19800
H         -2.05900        5.78800        3.17300
C         -0.02400        2.67100        3.27300
C          9.60200        2.81300        6.58700
H          9.76100        2.91400        5.64700
H         10.43500        2.65500        7.03800
H          9.19700        3.61300        6.93200
C          3.67200       -4.96200        7.59900
H          2.84200       -4.75500        8.03500
H          4.12800       -5.64800        8.09200
H          3.49700       -5.27200        6.70700
C          6.76600        1.12000        2.41100
H          6.42000        1.89800        2.03700
C          5.69500        2.69600        5.04100
H          5.33400        3.42300        4.58600
C         -1.26700        2.71100        2.64700
H         -1.60600        1.94000        2.25500
C         -2.00100        3.87000        2.60100
H         -2.81900        3.87800        2.15700
C          5.45500        0.56100        5.84100
C          8.11500        1.04900        2.72600
H          8.66800        1.77600        2.55200
C          1.60900        1.64400        0.52100
H          1.00900        1.93200       -0.18400
H          1.87300        2.43000        1.02300
C         -1.76700       -1.96200        5.31000
H         -2.25100       -2.60800        5.77000
C          3.85000        3.86000        2.54300
