85
C:\Users\Javier\OneDrive - Universitat de Barcelona\Tesi\4 - Contribucions\Treballs\3-PhD\chapter_1\cif\pc4p\QAYNEM.pc4p.pdb
Ru        11.81900        0.29400        8.77600
P         12.59700        0.37200       10.97300
P         10.19500        1.95500        9.10500
S         10.64100        0.60900        4.08800
S          8.62800       -3.22800        9.38600
N         10.43300       -1.12600        9.36500
N         13.46500        1.35600        8.00400
N         11.18400        0.16500        6.76800
C         15.27500       -0.48400       11.12600
H         15.50600        0.39900       10.94300
N         13.21200       -1.24100        8.32500
C         10.40400        3.52400        8.19400
C         10.80100        4.71100        8.80300
H         10.92200        4.74500        9.72400
C          8.45600        1.57000        8.61800
C         13.33900        1.89100       11.67300
C         10.42400        0.93500       12.79500
H         10.93000        1.69700       13.11600
H          9.94100        0.56700       13.55000
C         13.46800        3.04500       10.93400
H         13.16600        3.05800       10.05500
C         13.94300       -0.83200       11.25400
C         13.52400        2.63200        7.63000
H         12.73300        3.12100        7.63800
C          8.08700        0.38200        8.01100
H          8.74000       -0.23400        7.76700
C         14.60800        0.61600        7.86000
C         10.97700        0.34800        5.65800
C         14.45500       -0.82500        7.97800
C          9.41100        1.42800       11.77300
H          8.63600        1.76900       12.24600
H          9.11800        0.67400       11.23700
C          9.70000       -1.99600        9.36000
C          9.93100        2.53200       10.82100
H         10.76900        2.87500       11.16900
H          9.29500        3.26300       10.81100
C         11.40400       -0.11800       12.29700
H         10.89000       -0.87200       11.97100
H         11.91800       -0.43000       13.05800
C          6.74100        0.10200        7.76300
H          6.49800       -0.71600        7.39200
C          7.46200        2.50100        8.88200
H          7.69400        3.31900        9.25900
C         13.79900        1.90700       12.99000
H         13.73100        1.14200       13.51600
C         11.01800        5.84900        8.03000
H         11.26200        6.64300        8.44700
C         14.67800        3.28100        7.22900
H         14.66200        4.17400        6.96800
C         10.22500        3.52700        6.80700
H          9.93500        2.75300        6.38000
C          5.77800        1.03000        8.06400
H          4.88000        0.83900        7.90600
C         12.97700       -2.54100        8.35100
H         12.12000       -2.82800        8.57400
C         10.47100        4.66000        6.06200
H         10.36200        4.64000        5.13700
C          6.14200        2.24000        8.60200
H          5.49300        2.88600        8.77600
C         14.48700        4.18700       12.76400
H         14.87500        4.95000       13.12600
C         15.84000        2.56800        7.23100
H         16.64700        2.98700        7.03300
C         15.46200       -1.74200        7.69200
H         16.31500       -1.44600        7.46700
C         14.03900        4.18500       11.47100
H         14.11900        4.95400       10.95200
C         14.35500        3.05200       13.51600
H         14.64700        3.05600       14.39800
C         15.19600       -3.06500        7.74300
H         15.86900       -3.68100        7.56200
C         10.87900        5.82000        6.67600
H         11.06000        6.58000        6.17100
C         15.80700        1.24300        7.52400
H         16.59400        0.74700        7.50100
C         16.27100       -1.43900       11.26600
H         17.16400       -1.19100       11.18600
C         13.93700       -3.50400        8.06300
H         13.73400       -4.41000        8.08600
C         15.95100       -2.74400       11.52300
H         16.62300       -3.38000       11.61500
C         13.64700       -2.17000       11.50800
H         12.75900       -2.43100       11.58800
C         14.64000       -3.11200       11.64300
H         14.42000       -3.99900       11.81700
