93
C:\Users\Javier\OneDrive - Universitat de Barcelona\Tesi\4 - Contribucions\Treballs\3-PhD\chapter_1\cif\pc4p\QAYNUC.pc4p.pdb
C          3.77300        6.82400        4.33700
C          3.60000        5.37900        4.11700
H          2.74100        5.21700        3.72000
H          3.65500        4.91800        4.95800
H          4.29000        5.05900        3.53100
C          3.58800       12.97900        5.25200
H          3.25500       12.97200        4.38300
C          3.68500       14.19200        5.90300
H          3.44800       14.98300        5.47400
C          4.13900       14.20900        7.20700
H          4.21100       15.00800        7.67300
C          4.48000       13.01800        7.80200
H          4.77000       13.00900        8.68500
C          4.39800       11.83300        7.09100
C          4.82300       10.54700        7.65700
C          5.21000       10.39200        8.98100
H          5.15100       11.10200        9.57900
C          5.68200        9.16200        9.39400
H          5.95600        9.03600       10.27400
C          5.74200        8.13000        8.49800
H          6.07000        7.30100        8.76100
C          5.31100        8.33300        7.18900
H          5.34600        7.63000        6.58400
C          7.26500       10.37300        5.18900
C          7.55000       11.51100        5.95100
H          7.10400       12.30800        5.77600
C          8.49500       11.45600        6.96400
H          8.67200       12.21400        7.47300
C          9.17700       10.27400        7.22100
H          9.81300       10.24200        7.89800
C          8.91200        9.17100        6.48200
H          9.37300        8.38100        6.65100
C          7.96200        9.21000        5.47900
H          7.78600        8.43800        4.98800
C          6.67700        9.31800        2.63600
C          7.99000        9.57700        2.20500
H          8.47900       10.26200        2.60100
C          8.56000        8.81900        1.19600
H          9.43000        9.00200        0.92400
C          7.86600        7.80600        0.59500
H          8.26300        7.30100       -0.07700
C          6.56800        7.54100        0.99600
H          6.08500        6.86000        0.58600
C          5.98900        8.29100        2.00800
H          5.11800        8.10000        2.27300
C          6.19300       12.05500        3.20600
H          5.74400       12.69100        3.78300
H          7.14100       12.25700        3.24300
C          5.72100       12.31700        1.77400
H          6.05900       13.18400        1.50100
H          6.12800       11.65200        1.19600
C          1.28100       11.50400        2.97400
C          0.66600       11.90300        4.14200
H          0.95900       11.55200        4.95100
C         -0.37400       12.81200        4.13500
H         -0.75600       13.08200        4.93900
C         -0.85200       13.32600        2.95200
H         -1.54300       13.94700        2.95100
C         -0.29000       12.90100        1.77700
H         -0.62000       13.21600        0.96600
C          0.77600       11.99900        1.78900
H          1.15400       11.72800        0.98500
C          1.88400        8.79200        2.33300
C          0.85800        8.21000        3.09700
H          0.58200        8.60900        3.88900
C          0.25700        7.03200        2.66600
H         -0.41700        6.64100        3.17200
C          0.65800        6.44900        1.49000
H          0.24400        5.66600        1.20500
C          1.64900        6.99300        0.73700
H          1.91200        6.58200       -0.05500
C          2.26500        8.15900        1.15800
H          2.94600        8.52500        0.64200
C          3.59900       10.87300        1.46700
H          4.31200       10.24200        1.28800
H          2.98700       10.84000        0.71400
C          4.21600       12.29800        1.52700
H          4.03200       12.75300        0.69000
H          3.77800       12.79600        2.23500
N          3.89300        7.93600        4.47500
N          3.95300       11.80000        5.80600
N          4.84500        9.51900        6.78800
P          5.95100       10.37700        3.92600
P          2.70000       10.31400        2.96400
Cl         1.88500        9.44500        6.22900
Ru         3.92300        9.91400        4.92200
F          8.87200        3.91600        5.91900
F          7.12700        3.84700        4.68400
F          6.90000        4.10900        6.72800
F          8.10700        5.85400        6.76900
F          8.53000        5.59800        4.70300
F          6.52600        5.83500        5.40000
P          7.70000        4.89900        5.67500
