86
C:\Users\Javier\OneDrive - Universitat de Barcelona\Tesi\4 - Contribucions\Treballs\3-PhD\chapter_1\cif\pc4p\QOLLOV.pc4p.pdb
C         11.71300       29.36900        2.86400
C          9.91100       29.39800        4.47400
C         10.89200       29.10600        5.43700
H         10.65100       29.02900        6.33100
C         12.19700       28.93300        5.07500
H         12.82000       28.72500        5.73300
C         15.57000       30.90400        4.14000
C         15.74000       33.27100        4.46000
C         14.77900       33.39900        3.45300
H         14.48400       34.24400        3.19800
C         14.27400       32.29900        2.84800
H         13.63700       32.41000        2.17900
C         16.54200       30.94700        0.84000
C         17.57100       31.54400        1.53500
H         18.10200       31.04000        2.10800
C         17.81500       32.91300        1.37200
H         18.51900       33.31100        1.83100
C         17.02800       33.67700        0.54500
H         17.18500       34.59000        0.46600
C         16.02600       33.09900       -0.15300
H         15.50900       33.61100       -0.73300
C         15.76300       31.73900       -0.00500
H         15.06000       31.35300       -0.47600
C         15.85300       28.71800       -0.70000
C         14.65200       28.32600       -1.19800
H         13.91700       28.25700       -0.63400
C         14.51800       28.03300       -2.53200
H         13.69300       27.74700       -2.85600
C         15.57000       28.14800       -3.38800
H         15.46900       27.94600       -4.29100
C         16.74100       28.55500       -2.91900
H         17.45300       28.66600       -3.50500
C         16.92200       28.81800       -1.58000
H         17.76300       29.06200       -1.26500
C         17.73000       28.45200        1.48000
H         18.39400       28.87500        0.91400
H         17.93800       28.69500        2.39600
C         17.90400       26.94300        1.35100
H         18.82200       26.72500        1.57900
H         17.77400       26.70300        0.42000
C         12.75300       26.16300        1.39800
C         11.50100       26.25200        1.96000
H         11.41700       26.52100        2.84600
C         10.36300       25.94700        1.22700
H          9.52600       26.00600        1.62800
C         10.46800       25.55800       -0.09100
H          9.70500       25.37200       -0.58900
C         11.69700       25.45000       -0.65400
H         11.77300       25.17300       -1.53800
C         12.83500       25.74800        0.06900
H         13.66800       25.67000       -0.33600
C         13.97900       25.73000        3.88300
C         14.21800       26.25800        5.14000
H         14.53700       27.12800        5.21900
C         13.98300       25.50500        6.28600
H         14.13700       25.88000        7.12300
C         13.52800       24.21000        6.19000
H         13.36500       23.70500        6.95500
C         13.31800       23.67600        4.93500
H         13.01900       22.79800        4.85800
C         13.53700       24.40900        3.80600
H         13.39100       24.02200        2.97300
C         15.60400       25.80400        1.55500
H         15.41600       24.85400        1.60400
H         15.64400       26.04900        0.61800
C         16.98400       26.07300        2.20100
H         16.84900       26.50500        3.05800
H         17.42200       25.22300        2.36500
N         12.61000       29.05000        3.81100
N         14.65800       31.03700        3.18000
N         10.42300       29.51300        3.16400
H          9.87400       29.68500        2.52600
N         16.09700       31.96900        4.77200
H         16.67700       31.83700        5.39300
O          8.71500       29.53400        4.68900
O         16.30300       34.19900        5.07900
P         16.08600       29.18400        1.06300
P         14.22300       26.72400        2.35100
S         12.41400       29.50100        1.30500
S         16.00100       29.25800        4.42700
Ru        14.40300       28.97800        2.58800
Cl        12.85700       26.99600       10.51100
Cl        13.01800       28.97600        8.54600
C         13.21300       28.46300       10.09900
H         14.14300       28.60800       10.33200
H         12.68800       29.05400       10.66300
