108
C:\Users\Javier\OneDrive - Universitat de Barcelona\Tesi\4 - Contribucions\Treballs\3-PhD\chapter_1\cif\pc4p\QOPKOV.pc4p.pdb
C          8.69800        1.61600       11.67000
H          8.94500        0.74600       11.38100
C          7.53900        2.25500       10.97500
H          7.04900        1.56000       10.46800
H          7.88300        2.91700       10.32200
C          6.57900        2.94700       11.91400
H          5.67900        2.95100       11.49800
H          6.86300        3.88900       12.02000
C          6.47400        2.31700       13.28100
H          5.86700        1.59800       13.39500
C          7.21400        2.72500       14.38200
H          6.99000        2.33500       15.21900
C          8.33500        3.72100       14.37300
H          8.85800        3.61600       15.20800
H          7.94900        4.63300       14.37700
C          9.27300        3.59700       13.19200
H          8.92900        4.15800       12.45200
H         10.16000        3.95100       13.45100
C          9.44100        2.16500       12.68700
H         10.10100        1.62100       13.10100
C          5.07500       -0.19000       15.59400
H          4.80700       -0.82100       16.32200
C          4.44000        1.16100       15.95500
H          4.77900        1.45900       16.83600
H          4.70000        1.83800       15.28100
C          2.91900        1.05500       16.00700
H          2.65700        0.46600       16.75800
H          2.53600        1.95100       16.17500
C          2.35100        0.50300       14.72000
H          2.53100        1.13800       13.98200
H          1.36800        0.40700       14.80900
C          2.96300       -0.85800       14.38100
H          2.70700       -1.51800       15.07200
H          2.60900       -1.17200       13.51000
C          4.48200       -0.76600       14.30400
H          4.73800       -0.19200       13.54000
H          4.85600       -1.67000       14.14800
C          7.43400        0.63800       17.12300
H          7.00700        1.54000       17.07300
C          6.89300       -0.00600       18.41600
H          5.91500       -0.14000       18.33300
H          7.31300       -0.89400       18.54300
C          7.17700        0.86400       19.62600
H          6.86300        0.40200       20.44400
H          6.67900        1.71400       19.54200
C          8.66000        1.16200       19.75400
H          9.14600        0.32200       19.95400
H          8.80200        1.78400       20.51100
C          9.23300        1.78400       18.47000
H          8.83400        2.67900       18.33300
H         10.21000        1.89700       18.56700
C          8.93900        0.90300       17.25600
H          9.26900        1.35100       16.43800
H          9.41800        0.04200       17.35100
C          7.14500       -2.02500       15.92200
H          6.46900       -2.25400       16.60700
H          6.90100       -2.52200       15.10200
C          8.47800       -2.57800       16.40400
H          8.39500       -3.56100       16.49400
H          8.66000       -2.21300       17.30600
C          9.67400       -2.27800       15.51200
H         10.45400       -2.79500       15.83400
H          9.89700       -1.31600       15.58600
C          9.42200       -2.62000       14.03800
H          8.60900       -3.18400       13.98000
H         10.18300       -3.15700       13.70400
C          8.33500       -1.83500       11.43300
H          8.69400       -1.34100       10.64100
C          6.83000       -1.53800       11.50200
H          6.42900       -2.03700       12.25800
H          6.69200       -0.57100       11.66400
C          6.13500       -1.94200       10.19900
H          5.16300       -1.77300       10.27800
H          6.48200       -1.39100        9.45400
C          6.36900       -3.41200        9.89600
H          5.95600       -3.63800        9.02400
H          5.93600       -3.96600       10.59300
C          7.85100       -3.72500        9.84700
H          8.26800       -3.23400        9.09600
H          7.97800       -4.69400        9.68700
C          8.53600       -3.33100       11.15700
H          9.50400       -3.53100       11.09900
H          8.15700       -3.86000       11.90200
C         10.95400       -0.82000       12.39800
H         10.91400        0.00800       11.83900
C         11.84300       -0.46800       13.60700
H         11.40100        0.23200       14.15100
H         11.96100       -1.26900       14.17800
C         13.20400        0.03200       13.14300
H         13.77500        0.21300       13.93300
H         13.09000        0.88200       12.65000
C         13.90000       -0.99100       12.24200
H         14.74300       -0.60400       11.89900
H         14.12500       -1.79600       12.77100
C         13.01900       -1.38800       11.07100
H         13.46500       -2.10600       10.55700
H         12.90500       -0.61000       10.47100
C         11.64400       -1.87600       11.53000
H         11.74500       -2.71400       12.04600
H         11.08200       -2.07000       10.73800
P          9.20400       -1.15600       12.93800
P          6.95600       -0.22900       15.54900
Rh         8.02500        0.76100       13.64000
B          5.41300       -5.20800       17.39000
F          5.62100       -4.09600       18.07900
F          5.77400       -5.13300       16.11500
F          4.22600       -5.76900       17.58500
F          6.13200       -6.15900       17.96900
