117
C:\Users\Javier\OneDrive - Universitat de Barcelona\Tesi\4 - Contribucions\Treballs\3-PhD\chapter_1\cif\pc4p\RAGHEP.pc4p.pdb
Ru         4.02400        4.13300        2.02200
S          4.73800        5.95400        3.34300
P          2.07800        5.16400        1.38200
P          5.27300        4.90800        0.24500
O          5.66000        2.96200        2.67800
N          6.66700        4.24800        4.35800
N          7.00100        6.46500        4.58300
C          6.66300        7.87400        4.51600
H          6.17700        8.04800        3.70700
H          7.46800        8.39800        4.52400
H          6.12000        8.11000        5.27300
N          3.16600        3.15600        3.73200
N          3.21000        2.35600        1.18900
C          1.43200        4.93100       -0.33300
H          1.56400        4.00000       -0.57400
H          0.47400        5.08800       -0.31100
C          2.01800        5.79000       -1.45300
H          1.44200        5.70700       -2.22900
H          1.98600        6.71600       -1.16900
C          3.44400        5.47900       -1.88800
H          3.57000        5.81700       -2.78800
H          3.54900        4.51600       -1.92300
C          4.55000        6.05500       -0.99300
H          4.19100        6.82300       -0.52200
H          5.26600        6.37500       -1.56400
C          6.77200        5.84700        0.75500
C          7.87000        5.16400        1.26500
H          7.86700        4.23400        1.28700
C          8.96800        5.86100        1.74200
H          9.70000        5.39500        2.07900
C          8.98600        7.23400        1.71700
H          9.71600        7.69900        2.06000
C          7.92700        7.91600        1.18700
H          7.94800        8.84500        1.14700
C          6.81900        7.23200        0.71000
H          6.10100        7.70700        0.35700
C          6.06500        3.62500       -0.81600
C          6.34500        2.37400       -0.29800
H          6.06200        2.15800        0.56100
C          7.04500        1.43500       -1.04600
H          7.22700        0.59700       -0.68700
C          7.46900        1.74300       -2.31300
H          7.94000        1.11600       -2.81200
C          7.19700        2.97900       -2.83700
H          7.48900        3.18900       -3.69500
C          6.49200        3.91200       -2.10600
H          6.30100        4.74100       -2.48100
C          1.79300        6.97700        1.52300
C          0.49500        7.46700        1.45500
H         -0.21700        6.86800        1.42600
C          0.23900        8.82200        1.43200
H         -0.63700        9.13000        1.38600
C          1.27900        9.71600        1.47200
H          1.10800       10.63100        1.46200
C          2.57300        9.25700        1.53300
H          3.27800        9.86200        1.55000
C          2.83500        7.89800        1.56400
H          3.71500        7.59800        1.61200
C          0.69200        4.47300        2.37100
C         -0.08200        3.41600        1.90400
H          0.03200        3.10700        1.03400
C         -1.02300        2.82200        2.72900
H         -1.52900        2.11000        2.41200
C         -1.21600        3.27400        4.00200
H         -1.85200        2.87100        4.54900
C         -0.47000        4.32400        4.47500
H         -0.60600        4.64000        5.33800
C          0.48600        4.91700        3.66600
H          0.99700        5.62000        3.99700
C          6.22600        5.48600        4.10100
C          6.34700        3.13000        3.73200
C          6.95300        1.89700        4.32600
C          7.07600        0.75400        3.57300
H          6.75800        0.73800        2.69900
C          7.67000       -0.37700        4.10700
H          7.76400       -1.14400        3.59100
C          8.12200       -0.36000        5.40400
H          8.53700       -1.11300        5.75900
C          7.96400        0.74900        6.17100
H          8.23200        0.74100        7.06200
C          7.40400        1.89000        5.62500
H          7.33200        2.65900        6.14100
C          8.25100        6.15400        5.27700
H          8.08700        5.48800        5.94900
H          8.59400        6.95000        5.69100
H          8.89200        5.82000        4.64600
C          2.67100        1.92800        3.49400
C          2.26800        1.09200        4.52900
H          1.91800        0.25100        4.34400
C          2.39100        1.52200        5.83400
H          2.13000        0.97500        6.53900
C          2.90200        2.76000        6.07400
H          2.99600        3.06800        6.94600
C          3.27800        3.55100        5.01400
H          3.62500        4.39700        5.19100
C          2.60500        1.52800        2.08000
C          3.14400        2.01100       -0.11200
H          3.56800        2.55800       -0.73400
C          2.48300        0.89400       -0.57100
H          2.45800        0.70100       -1.48100
C          1.86400        0.07200        0.33600
H          1.40800       -0.68700        0.05300
C          1.93100        0.39200        1.66400
H          1.52000       -0.15800        2.29200
P          7.37700        2.62200       10.17000
F          7.13500        2.28200       11.71300
F          7.52000        3.09300        8.66100
F          8.91300        2.89600       10.48000
F          5.78300        2.41700        9.92900
F          6.96500        4.16900       10.55500
F          7.60400        1.12700        9.86600
F          6.88900        2.44800       11.61700
F          8.05700        2.60600        8.69700
F          8.82400        2.96400       10.69400
F          6.07400        2.07900        9.58200
F          7.18800        4.08800       10.06700
F          7.94000        1.01100       10.21000
