107
C:\Users\Javier\OneDrive - Universitat de Barcelona\Tesi\4 - Contribucions\Treballs\3-PhD\chapter_1\cif\pc4p\RAPLAX.pc4p.pdb
Ru        10.31200        1.83400       27.37500
Cl         9.38800        2.98200       29.31800
Cl        11.51000        0.71700       25.59700
P          9.50200        3.49600       25.98300
P          8.34100        0.69000       27.25900
N         11.31900        0.36800       28.59000
N         12.30300        2.86800       28.13100
C         11.19700       -0.94900       28.43200
C         11.88700       -1.87500       29.18200
C         12.77600       -1.41400       30.13500
C         12.97300       -0.06600       30.26300
C         12.25100        0.81100       29.46800
C         12.45100        2.28500       29.48900
C         12.29700        4.33300       28.30200
C         13.49700        2.49200       27.34000
C          8.28800        4.63200       26.74800
C          6.82500        4.16400       26.96200
C          6.39900        2.73400       26.65600
C          6.83700        1.66500       27.66600
C         10.81800        4.66200       25.40100
C         10.86300        6.01000       25.68500
C         11.89600        6.81000       25.20400
C         12.90000        6.24100       24.44200
C         12.86800        4.89300       24.15000
C         11.84100        4.09800       24.62500
C          8.74000        3.16500       24.33700
C          7.95700        4.17000       23.73100
C          7.38400        3.96100       22.49000
C          7.55300        2.76700       21.84500
C          8.32500        1.79000       22.41100
C          8.92100        1.99500       23.66300
C          7.80000       -0.30600       25.79500
C          8.72500       -1.09600       25.13600
C          8.34700       -1.92700       24.08700
C          7.00400       -1.98000       23.70000
C          6.07900       -1.21100       24.34700
C          6.45800       -0.38000       25.38000
C          8.16700       -0.59600       28.58500
C          7.88000       -1.92500       28.35000
C          7.75000       -2.83000       29.38700
C          7.85700       -2.41500       30.69400
C          8.14400       -1.09300       30.95500
C          8.31900       -0.19100       29.91700
H         10.60700       -1.26300       27.77100
H         11.75700       -2.79600       29.05100
H         13.23900       -2.01800       30.68900
H         13.59500        0.26300       30.88900
H         11.79300        2.69300       30.08800
H         13.34400        2.48700       29.83400
H         12.57500        4.75700       27.47500
H         12.91000        4.57800       29.01300
H         11.40200        4.62700       28.53000
H         13.90800        1.70300       27.72900
H         14.13300        3.22400       27.34600
H         13.23100        2.30100       26.42500
H          8.64300        4.89500       27.62100
H          8.26000        5.44300       26.20000
H          6.60400        4.33400       27.90000
H          6.25400        4.75500       26.42900
H          6.75400        2.49000       25.77500
H          5.42100        2.71300       26.59200
H          6.09300        1.03800       27.78400
H          6.98600        2.10600       28.53000
H         10.18800        6.39400       26.21200
H         11.91100        7.73000       25.39500
H         13.60400        6.77500       24.12000
H         13.55100        4.51200       23.62400
H         11.82900        3.17900       24.42800
H          7.82400        4.98800       24.17400
H          6.87600        4.64100       22.09000
H          7.13900        2.61900       21.01500
H          8.45600        0.97700       21.95700
H          9.45000        1.31800       24.04100
H          9.62600       -1.06900       25.40400
H          8.98900       -2.45100       23.64100
H          6.73900       -2.54300       22.99500
H          5.17800       -1.24900       24.08700
H          5.81000        0.14400       25.81200
H          7.77200       -2.22300       27.46700
H          7.58700       -3.73600       29.19600
H          7.73600       -3.02500       31.40100
H          8.22300       -0.80000       31.84700
H          8.54100        0.70200       30.10900
C         13.03400        5.52400       20.62400
C         13.03000        3.22400       20.62900
C         13.65700        4.36200       20.41000
H         13.48400        6.33600       20.48100
H         13.48000        2.40900       20.49400
H         14.54600        4.35600       20.10200
C         11.29900       -0.61900       21.64800
C         12.51800       -0.62700       22.19000
C         11.14000       -0.63100       20.29400
H         10.54300       -0.60600       22.20700
H         12.61800       -0.63000       23.12400
H         10.28000       -0.64100       19.91900
C         11.72700        5.52400       21.05600
C         11.73100        3.22400       21.05000
C         11.10400        4.36200       21.26900
H         11.27700        6.33600       21.19800
H         11.28100        2.40900       21.18600
H         10.21500        4.35600       21.57700
C         13.46100       -0.61900       20.03100
C         12.24300       -0.62700       19.49000
C         13.62000       -0.63100       21.38600
H         14.21800       -0.60600       19.47300
H         12.14300       -0.63000       18.55600
H         14.48100       -0.64100       21.76100
