60
C:\Users\Javier\OneDrive - Universitat de Barcelona\Tesi\4 - Contribucions\Treballs\3-PhD\chapter_1\cif\pc4p\RINZOD.pc4p.pdb
Pd        11.68700        3.76700        1.66200
Cl        11.50600        5.38300        3.36200
Cl        12.19800        5.47100        0.12000
P         11.86800        2.19200        0.03800
P         10.86100        2.33700        3.19600
C         12.70900        0.60700        0.46500
C         13.04100        0.34100        1.91700
C         11.91600       -0.24600        2.71900
C         10.63100        0.57100        2.73100
C         12.87600        2.70300       -1.38800
C         12.40100        2.71100       -2.68100
C         13.23600        3.06500       -3.73800
C         14.54600        3.40900       -3.48800
C         15.04100        3.39500       -2.20800
C         14.20900        3.06000       -1.15400
C         10.21800        1.81500       -0.62000
C          9.79800        0.54100       -0.92100
C          8.49900        0.34600       -1.37900
C          7.63800        1.37600       -1.54200
C          8.05100        2.62500       -1.26000
C          9.33300        2.84600       -0.78600
C         11.78700        2.22200        4.74500
C         11.24300        1.47500        5.78400
C         11.97900        1.25100        6.94900
C         13.23100        1.77900        7.07300
C         13.77700        2.53100        6.02600
C         13.06300        2.74600        4.88100
C          9.18200        2.88700        3.62300
C          8.94100        3.66100        4.75200
C          7.66400        4.12100        5.01700
C          6.63100        3.82000        4.16400
C          6.86000        3.05300        3.06100
C          8.13800        2.56600        2.77500
H         12.02900       -0.28200        0.22500
H         13.61000        0.68000       -0.22500
H         13.31500        1.16400        2.28000
H         13.79400       -0.36900        1.94300
H         11.73400       -1.17900        2.36200
H         12.15000       -0.34500        3.61000
H         10.12900        0.26200        3.25200
H         11.48600        2.37900       -2.81200
H         12.83100        3.06600       -4.54100
H         15.00700        3.58000       -4.26400
H         15.79800        3.72500       -2.15800
H         14.35000        3.10500       -0.63400
H         10.27600       -0.26700       -0.84900
H          8.29600       -0.37200       -1.49300
H          6.91800        1.24400       -1.76900
H          7.44300        3.31700       -1.41100
H          9.58800        3.67700       -0.59300
H         10.50100        0.96400        5.80900
H         11.63900        0.79000        7.63900
H         13.74200        1.68400        7.93600
H         14.56600        2.92200        6.20700
H         13.37000        3.24300        4.21300
H          9.69100        3.80000        5.35900
H          7.48700        4.60200        5.74700
H          5.70800        4.16700        4.35600
H          6.35000        2.99800        2.54600
H          8.25000        1.97300        2.00400
