65
C:\Users\Javier\OneDrive - Universitat de Barcelona\Tesi\4 - Contribucions\Treballs\3-PhD\chapter_1\cif\pc4p\SAYHAB.pc4p.pdb
Pd         0.90800        2.32800        1.50300
P          1.97200        4.25700        0.85900
P          2.85400        1.32100        2.08900
S         -0.24300        0.39200        2.23600
S         -3.09800        4.89600        1.22300
N         -2.96700        0.92800        1.82600
N         -0.82300        3.32700        1.07000
C         -1.85600        0.75600        1.98000
C         -1.77500        3.96000        1.14200
C          3.78500        4.25100        0.69600
H          4.16100        3.90100        1.50800
H          4.08000        5.15700        0.57000
C          4.31700        3.40900       -0.47500
H          5.27600        3.40900       -0.43600
H          4.03000        3.83200       -1.28900
C          3.84800        1.97000       -0.52100
H          2.90400        1.97200       -0.70100
H          4.31000        1.53500       -1.24000
C          4.08100        1.16200        0.73300
H          4.10300        0.23700        0.47700
H          4.93600        1.41600        1.08900
C          1.44700        4.84500       -0.79100
C          0.91800        3.97900       -1.71800
C          0.67200        4.43300       -3.02000
C          0.91000        5.73500       -3.34800
C          1.40600        6.60200       -2.40900
C          1.69400        6.16000       -1.14200
C          1.62100        5.62200        2.02400
C          0.43800        6.34100        1.93100
C          0.18400        7.36000        2.81900
C          1.10400        7.68900        3.79600
C          2.28000        6.98800        3.89100
C          2.53400        5.96200        3.02000
C          2.70400       -0.38300        2.73600
C          2.58600       -1.46200        1.85400
C          2.45200       -2.73700        2.33400
C          2.40100       -2.96700        3.67300
C          2.45200       -1.92700        4.55500
C          2.60900       -0.62000        4.08700
C          3.60400        2.19500        3.48900
C          2.75500        2.77200        4.41800
C          3.29000        3.31100        5.59600
C          4.59200        3.33400        5.78400
C          5.45300        2.83700        4.87400
C          4.97800        2.22400        3.70100
H          0.73400        3.06600       -1.48800
H          0.32400        3.82600       -3.67800
H          0.72500        6.03700       -4.24200
H          1.55800        7.52200       -2.63600
H          2.06100        6.76100       -0.49000
H         -0.20800        6.11900        1.25600
H         -0.64000        7.85000        2.75900
H          0.91700        8.40500        4.40800
H          2.93100        7.23700        4.55200
H          3.34400        5.45500        3.11000
H          2.58400       -1.30200        0.90600
H          2.41000       -3.46800        1.71300
H          2.32800       -3.86600        4.00500
H          2.36800       -2.08400        5.49800
H          2.66400        0.10900        4.70700
H          1.81100        2.81400        4.25500
H          2.70700        3.66400        6.27200
H          4.93700        3.73100        6.58700
H          6.39800        2.89600        5.02700
H          5.57300        1.82400        3.07100
