213
C:\Users\Javier\OneDrive - Universitat de Barcelona\Tesi\4 - Contribucions\Treballs\3-PhD\chapter_1\cif\pc4p\SEDDOV.pc4p.pdb
C          0.18200        8.54300       10.03900
C          1.45200        6.23100       11.04900
H          2.20300        6.82000       11.22900
H          1.47400        5.51100       11.70000
C          1.60000        5.64400        9.64800
H          0.90700        6.01800        9.08000
H          2.45700        5.91500        9.28500
C          0.14100        8.10100       12.81200
C          1.38100        9.25600       10.09900
H          2.01700        9.02400       10.73600
C          1.50700        4.12400        9.60300
H          2.28000        3.76200       10.06200
H          1.56600        3.84300        8.67500
C          0.25100        3.49200       10.21300
H          0.35300        3.48700       11.17700
H          0.20200        2.56900        9.91900
C          1.27400        7.96900       13.58700
H          1.92400        7.34700       13.34800
C         -1.18000        4.52900        7.99400
C         -2.56700        2.92700        9.85900
C          0.50800        9.68500       15.08000
H          0.64300       10.23000       15.82000
C         -0.65300        3.48300        7.22500
H         -0.42300        2.68500        7.64300
C         -4.50600        0.96500       10.02000
H         -5.14400        0.28700       10.05300
C         -0.63500        9.79600       14.33300
H         -1.29300       10.40100       14.58900
C         -0.83300        4.75200        5.23000
H         -0.71000        4.83400        4.31300
C         -1.54600        5.67400        7.31900
H         -1.90800        6.38600        7.79100
C          1.45400        8.75000       14.71800
H          2.22000        8.64300       15.23600
C         -0.48000        9.95900        8.18400
H         -1.10000       10.19500        7.53200
C         -2.54200        1.97300       10.84200
H         -1.85200        1.98200       11.46500
C         -0.74500        8.90800        9.07700
H         -1.55400        8.45400        9.02200
C          8.23200        1.28200        2.43600
H          8.11600        0.32600        2.32400
H          7.35300        1.65600        2.60400
C         -4.57400        1.91700        9.06000
H         -5.28300        1.91300        8.45900
C         -0.46400        3.60700        5.84500
H         -0.08900        2.91200        5.35800
C         -0.82300        9.02000       13.20600
H         -1.60200        9.11400       12.70800
C          1.63600       10.29400        9.22700
H          2.43900       10.75700        9.28500
C         -3.61400        2.89900        8.95900
H         -3.66900        3.53900        8.28500
C          0.72700       10.64100        8.28900
H          0.91200       11.34000        7.70700
C         -3.51300        0.99900       10.93000
H         -3.48300        0.36900       11.61200
C         -1.37600        5.77700        5.92100
H         -1.63900        6.54900        5.47600
C          7.69800        1.38100        0.09800
H          7.62900        0.41600        0.14000
H          6.83200        1.74100        0.34400
C          2.68700        8.40700        4.21800
H          2.78000        9.35500        4.04800
H          3.08300        7.94300        3.46200
C          4.85300        8.69800        5.29900
H          4.70600        9.65500        5.21400
H          5.32700        8.56500        6.13400
C          7.96900        1.75900       -1.31400
H          8.77800        1.32500       -1.62600
H          8.08600        2.71900       -1.38600
C          1.25600        8.09400        4.22500
H          0.81600        8.62500        4.90400
H          1.13300        7.15900        4.45200
C         10.02200        1.19700        0.79500
H          9.92200        0.24400        0.75300
H         10.67200        1.42000        1.46600
H         10.31700        1.52700       -0.05800
C          5.69800        8.34700        4.30700
H          5.26400        8.51000        3.45500
H          5.86800        7.39000        4.36900
C          9.06000        1.49700        3.67800
H          9.15400        2.44000        3.86400
H          9.94300        1.11100        3.56500
C         -0.74800        7.99900        2.72500
H         -1.08900        8.20100        1.85000
H         -1.26000        8.47500        3.38400
H         -0.81900        7.05600        2.88800
C          6.73200        1.29500       -2.19000
H          6.40300        0.44200       -1.86200
H          6.01700        1.94700       -2.11000
C          7.08000        9.10600        4.32600
H          7.48900        8.96000        3.45800
H          6.87600       10.05400        4.38200
C          8.09400        8.84800        5.30400
H          8.84600        9.42300        5.14700
H          8.37400        7.93100        5.24100
H          7.74200        9.01100        6.18200
C          2.85300        8.63800        6.62300
H          2.80000        9.59500        6.53300
H          3.34900        8.42000        7.41500
H          1.96700        8.27400        6.68900
C          0.58100        8.38500        2.80500
H          0.64300        9.33700        2.62000
H          1.08300        7.91800        2.11900
C          3.62300        6.60500        5.55100
H          2.72200        6.25400        5.63700
H          3.98200        6.27100        4.71300
C          4.39500        6.06500        6.59300
H          4.08800        6.43400        7.43600
H          5.31900        6.33500        6.47100
C          7.10500        1.16700       -3.55200
H          6.34500        0.88400       -4.06600
H          7.80600        0.51500       -3.63100
H          7.41600        2.01200       -3.88100
C          9.20600        0.62200        6.00600
H          8.73900        0.21000        6.73900
H          9.52500        1.48800        6.27300
H          9.94800        0.06900        5.74900
C          8.29500        0.77200        4.86800
H          7.51900        1.29500        5.13000
H          7.98000       -0.10300        4.57700
B         -0.42500        2.68900       13.95900
H         -0.10600        2.11500       13.07800
B          0.50100        4.17800       14.58300
H          1.41000        4.55100       14.08900
B         -0.69300        5.31400       15.47600
H         -0.54800        6.40400       15.55800
B         -2.40900        4.49500       15.40800
H         -3.35300        5.05700       15.44800
B         -2.21800        2.88700       14.46400
H         -3.04000        2.42800       13.89500
B          0.51500        2.64600       15.45100
H          1.43200        2.04200       15.49200
B          0.36200        4.18600       16.33400
H          1.18700        4.58100       16.94200
B         -1.32700        4.35800       16.82000
H         -1.59900        4.87200       17.75200
B         -2.23400        2.94700       16.25100
H         -3.09000        2.53900       16.81000
B         -1.09900        1.91700       15.39300
H         -1.23000        0.82400       15.39300
B         -0.58500        2.77500       16.84200
H         -0.37500        2.25600       17.78700
Sn        -6.76700        5.49800       11.28900
B         -4.38500        5.85200       11.23300
B         -5.29000        6.41300        9.63300
B         -6.74600        7.62200       10.15100
H         -7.66100        7.76300        9.55700
B         -6.70500        7.75900       12.08400
H         -7.59700        7.98200       12.68700
B         -5.25900        6.65800       12.74500
H         -5.25600        6.19800       13.74500
B         -3.75200        7.22200       10.21800
B         -5.14500        8.23300        9.56700
H         -5.09600        8.72400        8.58400
B         -5.94400        9.00500       10.99800
H         -6.40000       10.00200       10.92000
B         -5.10600        8.48400       12.50700
H         -5.03000        9.14400       13.38300
B         -3.75900        7.34700       12.02700
B         -4.16400        8.81000       10.99200
H         -3.49100        9.67600       10.91000
Sn        -5.59600        5.85000        9.13900
B         -5.19100        8.19000        9.20000
B         -6.81700        7.67300       10.02600
B         -6.41900        6.29400       11.32500
B         -4.53200        5.98600       11.24600
B         -3.78500        7.14600        9.93000
B         -5.88300        9.12600       10.56500
B         -6.62400        8.00800       11.78800
B         -5.28900        7.04600       12.48300
B         -3.75500        7.51900       11.71400
B         -4.12800        8.79400       10.49500
B         -5.00900        8.74200       12.07900
N          3.52600        8.07200        5.45300
N          8.70500        1.82700        1.14600
C          4.33500        4.49500        6.67200
H          4.23900        4.23300        7.60100
H          3.54100        4.19000        6.20000
C          5.40500        3.88200        6.16400
H          5.29700        2.93400        6.23700
H          6.19000        4.15600        6.63800
H          5.49400        4.12200        5.23300
C          8.88200        3.24700        1.19100
H          9.59400        3.44400        1.81800
H          9.17300        3.54700        0.31600
C          7.72500        3.99700        1.56500
H          7.52200        3.77000        2.48600
H          6.98600        3.67600        1.02600
H          7.15300        3.46600        2.14100
H          7.21500        4.23300        0.77500
C          7.72000        5.59300        1.46400
H          7.96000        5.85500        0.56300
H          6.82000        5.91900        1.63800
C          8.64200        6.19800        2.41500
H          8.60900        7.15400        2.31800
H          9.52900        5.88500        2.23100
H          8.38800        5.95300        3.30200
C          8.15000        5.37900        2.33100
H          7.91400        5.30100        3.27300
H          9.11200        5.48600        2.28000
C          7.51000        6.55400        1.78300
H          7.79100        7.33000        2.27400
H          6.55700        6.45900        1.84800
H          7.76200        6.65200        0.86200
H         -2.71400        6.96500        9.75800
H         -2.70900        7.21000       12.42500
H         -3.59900        5.01400       11.28000
P         -1.35100        4.31800        9.80300
P         -0.10200        7.16900       11.24900
Ru        -2.06700        6.01200       11.17500
Sn        -1.39000        4.72500       13.33000
