78
C:\Users\Javier\OneDrive - Universitat de Barcelona\Tesi\4 - Contribucions\Treballs\3-PhD\chapter_1\cif\pc4p\SEZQET.pc4p.pdb
Rh         4.22800        6.09700       16.07400
Sn         3.11400        4.74300       18.06300
P          2.42400        7.46400       15.58400
P          5.32600        7.65100       17.36800
Cl         2.13500        5.84300       20.01500
Cl         4.41000        3.11900       19.26100
Cl         1.31700        3.19400       17.75100
C          4.24900        5.33800       14.00300
C          3.68800        4.37700       14.81800
C          4.86900        3.46700       15.23800
C          5.65500        4.41300       16.16200
C          6.19500        5.38800       15.33300
C          5.75600        5.02800       13.90500
C          5.71700        3.48600       13.97400
C          1.52800        8.22400       17.01400
C          2.01200        9.56700       17.53500
C          3.51400        9.76700       17.61700
C          4.29000        8.70300       18.43700
C          2.57100        8.80100       14.33700
C          1.49600        9.61200       14.10300
C          1.52600       10.53400       13.06800
C          2.63100       10.64500       12.29800
C          3.72100        9.85300       12.51700
C          3.66900        8.92300       13.55200
C          1.13200        6.43300       14.80700
C          1.02700        6.33300       13.43500
C          0.13000        5.44000       12.85200
C         -0.66900        4.66600       13.64600
C         -0.57900        4.75600       15.02300
C          0.29700        5.62800       15.60300
C          6.44700        8.84100       16.57600
C          6.72800        8.78700       15.23400
C          7.62400        9.66900       14.62300
C          8.24200       10.61900       15.38400
C          7.99800       10.70400       16.72900
C          7.10000        9.81100       17.32000
C          6.45200        6.81700       18.51200
C          7.79000        6.63100       18.19500
C          8.62000        5.89500       19.02300
C          8.12200        5.32700       20.16600
C          6.81800        5.50900       20.50100
C          5.98400        6.24900       19.67900
H          3.90100        5.67900       13.07400
H          2.84600        3.83500       14.65900
H          4.67700        2.56300       15.45200
H          6.13000        3.89100       16.83800
H          7.15500        5.77100       15.25300
H          6.30400        5.44000       13.07400
H          5.35500        3.00600       13.07400
H          6.64000        3.00600       13.86700
H          1.50800        7.56000       17.63100
H          0.56100        8.27900       16.64000
H          1.59100        9.75400       18.42300
H          1.60600       10.30700       16.83800
H          3.76600       10.69500       17.82900
H          3.92300        9.82800       16.64000
H          4.85000        9.10900       19.01700
H          3.68300        8.15000       18.81900
H          0.66500        9.53300       14.65900
H          0.71500       11.11900       12.87600
H          2.66400       11.32200       11.49000
H          4.57400        9.93900       11.88600
H          4.47400        8.31600       13.66900
H          1.64800        6.91500       12.67800
H          0.08500        5.36600       11.68800
H         -1.30900        4.02000       13.07400
H         -1.15000        4.16700       15.45200
H          0.39300        5.69800       16.44200
H          6.30400        8.07600       14.46100
H          7.85100        9.60700       13.47100
H          8.90100       11.26600       14.85700
H          8.48400       11.41400       17.23400
H          6.92800        9.88300       18.22500
H          8.18100        7.04400       17.23400
H          9.62500        5.77100       18.62100
H          8.76300        4.77600       20.60200
H          6.45800        5.07100       21.19600
H          5.03400        6.39800       19.81000
