209
C:\Users\Javier\OneDrive - Universitat de Barcelona\Tesi\4 - Contribucions\Treballs\3-PhD\chapter_1\cif\pc4p\SOQQUL.pc4p.pdb
Ru        -3.95900        2.28500       19.82700
Ru         6.19800        2.32400       18.34800
S         -4.70400       -0.00900       20.05100
S         -3.92400        4.67800       19.40500
S          5.42200        0.04100       18.01100
S          6.25500        4.68200       18.91000
P         -2.59100        2.64200       21.60200
P         -2.28700        1.72300       18.39900
P          7.85400        1.66800       19.74500
P          7.58200        2.79200       16.61400
N         -6.59900       -0.42800       18.17800
H         -7.10000       -0.17200       17.52700
H         -6.66100       -1.23100       18.47700
N         -5.52100        1.66300       18.36800
N         -6.26500        2.09400       17.27000
H         -6.69000        1.54100       16.76700
N         -6.17400        5.65700       20.55100
H         -6.90100        5.55800       21.00200
H         -5.96400        6.42800       20.23700
N         -5.58400        3.38700       20.77300
N         -6.72200        3.19100       21.51900
H         -7.28900        3.82100       21.66600
N          3.98000        5.73800       17.89600
H          3.25300        5.68200       17.44200
H          4.18900        6.47800       18.28200
N          4.58400        3.49300       17.46000
N          3.44800        3.37500       16.69700
H          2.89800        4.03000       16.59400
N          3.50800       -0.42300       19.86300
H          3.01600       -0.18200       20.52800
H          3.42800       -1.21300       19.53600
N          4.60700        1.67200       19.76000
N          3.85500        2.06600       20.84900
H          3.43200        1.49300       21.33100
O         -7.40700        1.79900       14.88900
O         -9.01100        3.80500       22.73600
H         -8.31900        3.94800       22.32300
O          8.75600        5.90600       23.61400
O          6.61300        6.01200       23.14000
O          1.24800        4.21400       15.52500
O          2.65500        1.70200       23.20100
O          1.93800       15.17000       22.55500
O         10.03100        2.23600        1.09000
C         -5.71700        0.42600       18.72500
C         -6.28500        3.32600       17.05300
H         -5.82500        3.89000       17.63200
C         -6.99900        3.91300       15.92800
C         -7.51400        3.15000       14.89300
C         -8.18000        3.80500       13.83800
H         -8.53100        3.30100       13.14000
C         -8.32000        5.14600       13.81500
H         -8.74800        5.55400       13.09900
C         -7.83900        5.90600       14.83700
H         -7.95800        6.82800       14.83500
C         -7.16200        5.28000       15.89900
H         -6.81800        5.79700       16.59200
C         -6.87600        2.02000       21.97300
H         -6.22500        1.38300       21.78500
C         -8.02700        1.62200       22.78100
C         -9.05400        2.50800       23.10900
C         -5.37000        4.61000       20.34300
C        -10.14300        2.04700       23.83300
H        -10.83900        2.62900       24.03400
C        -10.20900        0.76200       24.25300
H        -10.94300        0.47400       24.74700
C         -9.20700       -0.11300       23.95400
H         -9.25100       -0.99100       24.26000
C         -8.11400        0.30800       23.19100
H         -7.44800       -0.29700       22.95700
C         -2.04600        1.21900       22.64900
C         -0.82100        1.20800       23.28900
H         -0.26400        1.95100       23.21700
C         -0.40700        0.12600       24.02800
H          0.42200        0.14200       24.44800
C         -1.20800       -0.97100       24.15200
H         -0.91700       -1.70700       24.63900
C         -2.42400       -0.98900       23.56100
H         -2.97600       -1.73400       23.64700
C         -2.84900        0.11300       22.82400
H         -3.69500        0.10400       22.43900
C         -3.34000        3.73100       22.87900
C         -3.21400        5.11200       22.81800
H         -2.70600        5.50300       22.14300
C         -3.84500        5.90600       23.75800
H         -3.74600        6.83000       23.71200
C         -4.60700        5.36900       24.74700
H         -5.03400        5.91700       25.36500
C         -4.73400        4.01900       24.82400
H         -5.24600        3.64400       25.50400
C         -4.10900        3.18900       23.89500
H         -4.20800        2.26600       23.95600
C         -1.24900        0.21900       18.53100
C         -0.31100       -0.08100       17.55200
H         -0.27100        0.43000       16.77700
C          0.56500       -1.14100       17.72300
H          1.18500       -1.33900       17.05500
C          0.52600       -1.89100       18.85300
H          1.14400       -2.57700       18.96900
C         -0.41000       -1.65400       19.82200
H         -0.45700       -2.19700       20.57700
C         -1.29300       -0.58400       19.66800
H         -1.91800       -0.40300       20.33200
C         -2.95400        1.53700       16.69700
C         -3.14700        2.63000       15.88600
H         -2.90300        3.47200       16.19500
C         -3.69600        2.50700       14.61900
H         -3.80300        3.25800       14.08000
C         -4.08200        1.28200       14.16800
H         -4.44200        1.19200       13.31500
C         -3.93300        0.17500       14.97700
H         -4.21200       -0.66000       14.67500
C         -3.37200        0.30200       16.23500
H         -3.27500       -0.44900       16.77500
C         -1.00100        3.49500       21.25600
H         -1.18100        4.28800       20.72600
H         -0.61400        3.78400       22.09700
C          0.02800        2.62500       20.50800
H          0.88100        2.69800       20.96600
H         -0.25400        1.69800       20.56900
C          0.24300        2.96600       19.04100
H          0.84600        2.30700       18.66300
H          0.69100        3.82400       18.99500
C         -1.00500        3.03000       18.16000
H         -0.71800        3.00200       17.23300
H         -1.42600        3.89200       18.30500
C          4.40500        0.44200       19.33700
C          3.81700        3.29900       21.10900
H          4.29000        3.88100       20.55900
C          3.06600        3.86200       22.23100
C          2.52700        3.04100       23.23400
C          1.81200        3.64200       24.27400
H          1.45900        3.11100       24.95300
C          1.62100        4.97600       24.31400
H          1.13100        5.35300       25.00700
C          2.14700        5.77400       23.33800
H          2.01800        6.69400       23.37700
C          2.86400        5.23100       22.30500
H          3.21700        5.78400       21.64800
C          4.79100        4.67700       18.00200
C          3.25600        2.24700       16.15100
H          3.87300        1.56700       16.29500
C          2.09600        1.98100       15.30400
C          1.12800        2.96500       15.04600
C          0.01400        2.61400       14.27600
H         -0.64000        3.25500       14.10800
C         -0.13800        1.38000       13.77100
H         -0.89300        1.17500       13.26900
C          0.80600        0.42500       13.98700
H          0.70200       -0.42500       13.62200
C          1.92300        0.71500       14.76100
H          2.56000        0.05700       14.91700
C          7.17500        1.42400       21.42800
C          6.92300        2.50800       22.22800
H          7.14700        3.36300       21.93900
C          6.32400        2.31700       23.49500
H          6.16800        3.05000       24.04700
C          5.97800        1.08400       23.90500
H          5.58000        0.96200       24.73700
C          6.20700        0.03700       23.11400
H          5.96900       -0.81200       23.41300
C          6.79200        0.16600       21.85700
H          6.92300       -0.58000       21.31600
C          8.86800        0.15000       19.52500
C          9.76900       -0.23900       20.52500
H          9.79900        0.23200       21.32600
C         10.60900       -1.30900       20.32900
H         11.19300       -1.57100       21.00400
C         10.58200       -2.00200       19.12100
H         11.17100       -2.70800       18.97700
C          9.68600       -1.64500       18.14000
H          9.65100       -2.12300       17.34100
C          8.83700       -0.56400       18.34800
H          8.23900       -0.32000       17.68100
C          8.12600        1.44900       15.48000
C          7.27800        0.37900       15.20500
H          6.42800        0.35400       15.58500
C          7.69200       -0.65800       14.36400
H          7.12200       -1.37300       14.19600
C          8.93000       -0.63100       13.78400
H          9.20100       -1.32300       13.22500
C          9.77100        0.43000       14.03600
H         10.61100        0.45600       13.63700
C          9.38000        1.45400       14.87300
H          9.96200        2.16000       15.03600
C          6.81600        3.95000       15.40500
C          6.91600        5.32800       15.54500
H          7.43800        5.69100       16.22100
C          6.23100        6.16100       14.67500
H          6.29400        7.08300       14.78600
C          5.47700        5.67300       13.67000
H          5.03000        6.25100       13.09400
C          5.37600        4.32700       13.50600
H          4.86500        3.98200       12.81000
C          6.02800        3.47100       14.36900
H          5.93800        2.55100       14.25300
C          9.14800        2.94700       20.06700
H          8.73200        3.81900       19.97100
H          9.42600        2.86200       20.99100
C         10.41000        2.92800       19.19400
H         10.87300        3.77300       19.31200
H         10.99600        2.22900       19.52300
C         10.19500        2.70800       17.70100
H          9.91000        1.79000       17.56800
H         11.05000        2.81300       17.25400
C          9.17300        3.63200       17.01100
H          9.56200        3.97300       16.19000
H          8.99400        4.38900       17.58900
C         11.03900        2.76700        0.91400
C          2.89700       15.16300       22.18400
