97
C:\Users\Javier\OneDrive - Universitat de Barcelona\Tesi\4 - Contribucions\Treballs\3-PhD\chapter_1\cif\pc4p\TAQDAQ.pc4p.pdb
Rh         1.35700        6.49500        2.79600
P          0.35200        4.56900        3.33200
P          1.82900        6.04500        0.66500
C          1.32900        7.35400        4.84300
C          1.35200        8.34300        3.84000
C          2.37500        8.45500        2.85600
C          3.82600        8.28300        3.15000
C          4.37200        9.23500        4.22200
C          3.61800        9.23100        5.53500
C          3.42600        7.89400        6.25400
C          2.56900        6.82000        5.53700
C          0.53400        5.23300       -0.40200
C         -0.78900        4.96800        0.29000
C         -0.89100        3.61700        0.96600
C          0.17400        3.27800        2.02600
C          1.22600        3.61300        4.64400
C          2.41100        2.97300        4.29600
C          3.12200        2.28900        5.30400
C          2.65600        2.25700        6.59700
C          1.51300        2.89300        6.92700
C          0.79100        3.57200        5.93900
C         -1.36300        4.64800        3.97900
C         -2.03800        3.54100        4.44400
C         -3.36200        3.62700        4.90600
C         -4.00600        4.82400        4.86100
C         -3.36200        5.95100        4.38600
C         -2.04000        5.86800        3.95600
C          3.30900        4.99700        0.37700
C          3.62400        4.45900       -0.86900
C          4.79800        3.76400       -1.07600
C          5.67600        3.58000       -0.02200
C          5.37000        4.09200        1.20400
C          4.19500        4.79100        1.41300
C          2.25400        7.52300       -0.32100
C          1.25900        8.43800       -0.67200
C          1.56000        9.63300       -1.30300
C          2.82900        9.90000       -1.65300
C          3.83700        9.01300       -1.32500
C          3.56700        7.84300       -0.66900
C         -1.81000        9.90000        5.52400
C         -2.44800        9.57200        6.68700
C         -3.18300        9.60900        7.60800
C         -3.68900        9.09100        8.73900
C         -2.62500        8.94400        9.67600
H          0.50300        7.25000        5.32200
H          0.57800        8.90500        3.75400
H          2.18000        9.03200        2.11500
H          4.32600        8.40000        2.33800
H          3.96800        7.38200        3.45100
H          4.35900       10.12400        3.85600
H          5.28800        9.01300        4.40300
H          2.74700        9.60200        5.37600
H          4.07400        9.82100        6.13900
H          3.03500        8.05300        7.11800
H          4.29800        7.52100        6.40400
H          3.11600        6.37500        4.88600
H          2.29000        6.16500        6.17800
H          0.88100        4.39300       -0.71200
H          0.37500        5.78800       -1.17000
H         -1.50600        5.05600       -0.34300
H         -0.90500        5.64700        0.95700
H         -0.85600        2.94600        0.28100
H         -1.75300        3.55600        1.38500
H         -0.05600        2.44400        2.44500
H          1.02000        3.16000        1.58700
H          2.74000        3.01700        3.39700
H          3.94200        1.84100        5.08200
H          3.13200        1.76400        7.26900
H          1.19800        2.90700        7.83300
H         -0.03100        4.01200        6.16900
H         -1.59500        2.68900        4.44900
H         -3.81400        2.85200        5.24600
H         -4.91400        4.89300        5.16500
H         -3.82900        6.78900        4.33800
H         -1.58700        6.65700        3.65400
H          3.00900        4.56300       -1.59700
H          5.00400        3.41300       -1.94700
H          6.48500        3.08500       -0.16400
H          5.98200        3.96700        1.93300
H          3.99200        5.15000        2.27900
H          0.34700        8.24900       -0.44000
H          0.86600       10.26100       -1.52000
H          3.04700       10.69700       -2.14200
H          4.75300        9.23100       -1.51600
H          4.27800        7.23500       -0.45600
H         -1.29300        9.18700        5.14200
H         -2.48800       10.17500        4.90200
H         -1.23500       10.64400        5.71900
H         -1.67700        9.23600        7.15000
H         -2.88800        8.78300        6.36200
H         -3.96600        9.95300        7.17200
H         -2.74800       10.38300        7.97200
H         -4.06300        8.23400        8.52400
H         -4.38400        9.64500        9.10600
H         -2.95800        8.53600       10.47800
H         -1.93900        8.38900        9.29700
H         -2.26100        9.80800        9.88200
