146
C:\Users\Javier\OneDrive - Universitat de Barcelona\Tesi\4 - Contribucions\Treballs\3-PhD\chapter_1\cif\pc4p\TIPXAS.pc4p.pdb
Pd         5.85600       14.72800        5.26100
P          6.92100       13.04100        4.12100
P          6.43400       16.58800        3.98000
C          5.01600       16.05000        6.81400
C          4.17300       14.95900        6.65100
C          4.78400       13.65300        6.75200
C          4.63600       12.60700        7.49600
C          2.74700       15.10200        6.14400
C          5.31600       11.28300        7.25400
C          3.74400       12.67500        8.70300
C          7.17700       16.44100        2.30000
C          8.63700       15.99400        2.29300
C          8.92500       14.73300        3.10900
C          8.04000       13.57800        2.75600
C          4.86100       17.42400        3.66000
C          3.96300       16.83800        2.79100
C          2.69800       17.37800        2.60200
C          2.33300       18.50300        3.26400
C          3.14500       19.05000        4.13100
C          4.46000       18.55000        4.30800
C          7.51500       17.79100        4.80900
C          7.68900       19.06400        4.29300
C          8.61300       19.94700        4.88400
C          9.30400       19.53600        6.00600
C          9.12600       18.28600        6.52600
C          8.21800       17.39400        5.92200
C          5.85400       11.79800        3.34700
C          4.53600       11.62300        3.81100
C          3.70200       10.66400        3.23800
C          4.14100        9.90800        2.17400
C          5.37300       10.06400        1.74500
C          6.28300       10.97900        2.26900
C          8.06400       12.17700        5.23600
C          8.32700       12.68200        6.51700
C          9.16600       12.00600        7.35500
C          9.79300       10.85100        6.96400
C          9.56500       10.37100        5.68700
C          8.70800       11.01000        4.86500
H          4.61600       16.88800        6.47300
H          5.56000       15.96400        7.36200
H          2.54500       16.03100        6.01400
H          2.14000       14.72900        6.78700
H          2.65600       14.63400        5.31000
H          4.75800       10.73300        6.70000
H          5.46600       10.84200        8.09300
H          6.15700       11.42900        6.81600
H          4.25300       12.96700        9.46300
H          3.37800       11.80500        8.88000
H          3.03000       13.29500        8.53900
H          6.65600       15.80700        1.78400
H          7.11400       17.30200        1.85700
H          9.18300       16.71800        2.63900
H          8.90700       15.83800        1.37500
H          9.84900       14.47400        2.96700
H          8.81600       14.93500        4.05000
H          8.59600       12.82700        2.49700
H          7.50000       13.82200        1.98800
H          4.20800       16.07000        2.32500
H          2.10000       16.96800        2.02000
H          1.50000       18.88500        3.10400
H          2.85900       19.77700        4.63500
H          5.05000       18.99400        4.87200
H          7.19600       19.33900        3.55300
H          8.75600       20.79400        4.52600
H          9.90200       20.11800        6.41400
H          9.60400       18.02300        7.27800
H          8.09400       16.54300        6.27500
H          4.21900       12.15300        4.50700
H          2.84600       10.53400        3.57600
H          3.57300        9.29500        1.76300
H          5.65800        9.52400        1.04400
H          7.14200       11.05000        1.92300
H          7.93000       13.47600        6.79600
H          9.31700       12.33700        8.21100
H         10.35900       10.39700        7.54600
H         10.00500        9.60300        5.39500
H          8.54400       10.65500        4.02200
F          8.07700       12.38700       -2.60700
F          8.78300       12.05000       -0.90400
F          6.99400       12.70100       -0.98700
F          7.29900       18.17400       -2.87600
F          7.66400       18.74800       -1.08900
F          6.17200       17.57600       -1.52100
F         17.24400       14.92500       -0.50500
F         16.94400       13.09100       -1.24500
F         17.34700       13.40300        0.78300
F         13.19100       11.39300        2.62900
F         11.41500       12.09100        2.02700
F         12.44700       12.98300        3.31700
F         12.06300       19.33500       -5.40300
F         10.72600       18.21900       -6.27500
F         12.49600       18.45100       -7.02300
F         13.98100       13.76200       -6.86500
F         14.73500       13.10200       -5.09700
F         12.99400       12.63200       -5.61900
F         11.65900       19.15400        3.10300
F         10.30400       19.88800        1.77200
F         11.90300       21.02200        2.34000
F         15.54400       21.19300       -1.01200
F         15.61300       19.88500       -2.38600
F         16.49300       19.48100       -0.72100
C         10.56700       15.76600       -1.34100
C         10.00000       14.49500       -1.40700
C          8.63700       14.26600       -1.51000
C          7.77000       15.32900       -1.58800
C          8.28100       16.60300       -1.58900
C          9.66600       16.81800       -1.45700
C          8.10900       12.90800       -1.56800
C          7.37600       17.76200       -1.72000
C         13.06500       14.90700       -0.51600
C         14.42400       14.76200       -0.72200
C         15.20300       13.88400        0.03000
C         14.63500       13.10700        1.01800
C         13.26600       13.22700        1.23200
C         12.50900       14.13300        0.51600
C         16.67100       13.77100       -0.24700
C         12.63000       12.40600        2.28200
C         12.55200       15.96500       -2.98400
C         12.19500       17.06600       -3.77200
C         12.33200       17.05900       -5.15700
C         12.83200       15.96100       -5.79400
C         13.22100       14.87700       -5.05300
C         13.07100       14.88000       -3.66400
C         11.83900       18.23300       -5.91200
C         13.82500       13.69900       -5.73100
C         12.65000       17.45900       -0.73200
C         11.96800       18.05600        0.36100
C         12.40300       19.26200        0.89400
C         13.53500       19.90600        0.41300
C         14.22300       19.31100       -0.61600
C         13.78300       18.12400       -1.18400
C         11.59500       19.83700        2.02500
C         15.46000       19.96600       -1.10200
B         12.21400       16.00900       -1.38000
H         10.56700       13.76000       -1.38200
H          6.85200       15.18700       -1.63900
H          9.98800       17.69100       -1.44700
H         14.83300       15.26700       -1.38900
H         15.14900       12.52000        1.52400
H         11.60700       14.23300        0.72200
H         11.85800       17.82700       -3.35700
H         12.90800       15.94900       -6.72200
H         13.33100       14.13000       -3.18100
H         11.22100       17.63400        0.72200
H         13.81800       20.71600        0.77500
H         14.26300       17.76100       -1.89400
