190
C:\Users\Javier\OneDrive - Universitat de Barcelona\Tesi\4 - Contribucions\Treballs\3-PhD\chapter_1\cif\pc4p\TUKXEE.pc4p.pdb
Ru        10.74900        8.42800       18.60200
P          9.43600        7.67800       16.79300
P         11.23400       10.35600       17.40600
O          9.38000        9.68100       19.45100
O          8.83000        8.40500       19.28100
C         11.66600        7.88900       20.66100
C         11.31700        6.51300       19.85300
B         12.64000        8.94300       19.71800
H         12.70300       10.03800       19.97000
B         13.36200        7.93600       21.01000
H         13.60100        8.51700       21.90400
B         12.51700        6.42100       21.10300
H         12.18200        5.92900       22.01000
B         11.98200        6.56500       18.27600
H         11.52400        5.90600       17.48100
B         12.93200        8.11300       18.11700
B         14.14500        8.05400       19.44600
H         15.10700        8.63300       19.24900
B         14.05500        6.49100       20.27600
H         15.00800        6.06500       20.67500
B         12.69900        5.58500       19.56400
H         12.54000        4.52500       19.51200
B         13.74100        6.57500       18.52900
H         14.36300        6.13500       17.83200
C         10.74500        8.35800       21.76500
H         10.87200        7.79500       22.55900
H          9.81400        8.29200       21.46500
H         10.95100        9.29000       21.99100
C         10.04900        5.73000       20.21200
H         10.21000        5.20200       21.02300
H          9.81300        5.13100       19.47400
H          9.31300        6.35700       20.37500
C          8.07100        8.86200       16.38300
H          7.24400        8.33500       16.25600
H          7.92800        9.44200       17.17200
C          8.23100        9.77100       15.16400
H          8.09700        9.22800       14.34500
H          7.51800       10.45800       15.18700
C          9.58200       10.47800       15.05900
H         10.27400        9.81200       14.82100
H          9.53900       11.14300       14.32400
C          9.99900       11.18600       16.34000
H          9.18500       11.34000       16.88100
H         10.35800       12.07500       16.09400
C         10.12400        7.20000       15.16800
C          9.24900        6.92400       14.12700
H          8.31100        6.97400       14.27400
C          9.72700        6.58000       12.87500
H          9.12100        6.39300       12.16700
C         11.10000        6.50500       12.65600
H         11.43000        6.27900       11.79300
C         11.97200        6.75200       13.67000
H         12.90900        6.68900       13.52100
C         11.48700        7.10000       14.93100
H         12.09900        7.27200       15.63800
C          8.52000        6.14500       17.23700
C          7.38400        6.20400       18.04500
H          7.05300        7.04300       18.34200
C          6.73300        5.02100       18.41300
H          5.95600        5.06500       18.95600
C          7.20100        3.80600       18.00300
H          6.76000        3.00900       18.27200
C          8.32900        3.74400       17.19100
H          8.65100        2.90100       16.89000
C          8.97800        4.90600       16.82000
H          9.75100        4.85400       16.27100
C         12.66900       10.00100       16.37400
C         13.41200        8.89100       16.81000
C         14.54000        8.54600       16.05800
H         15.09400        7.83200       16.35500
C         14.86900        9.21800       14.90100
H         15.63100        8.94700       14.40200
C         14.10800       10.27600       14.45700
H         14.32800       10.71900       13.64700
C         13.00400       10.69300       15.21200
H         12.49000       11.44200       14.93500
C         11.68400       11.80400       18.42200
C         10.70600       12.42800       19.19600
H          9.82900       12.06900       19.23600
C         11.02100       13.57700       19.91200
H         10.35800       13.99200       20.45200
C         12.29400       14.12800       19.84600
H         12.49800       14.92100       20.32600
C         13.25300       13.52000       19.08500
H         14.12600       13.89100       19.04000
C         12.95900       12.36100       18.37300
H         13.63400       11.94700       17.84900
Ru         8.87600        4.11900        5.97300
P         10.32400        2.26600        6.26100
P         10.76400        5.34600        5.38400
O          8.66800        3.89700        3.95300
O          8.27400        2.73600        4.63800
C          6.71000        4.92500        6.15900
C          6.94900        3.70500        7.22900
B          7.89300        6.14900        6.32600
H          8.05900        6.81100        5.54700
B          6.27000        6.35600        6.99900
H          5.59700        7.00900        6.50000
B          5.67600        4.82200        7.54200
H          4.66900        4.49000        7.34400
B          8.37800        4.00700        8.18800
H          8.90100        3.20900        8.71000
B          9.01700        5.63400        7.68500
B          7.67200        6.79600        7.96900
H          7.95600        7.74200        8.27200
B          6.31100        5.96300        8.72500
H          5.68200        6.54300        9.46500
B          6.72100        4.23300        8.82600
H          6.33700        3.53600        9.61500
B          7.97000        5.46000        9.13100
H          8.43000        5.65600       10.20000
C          5.95400        4.66600        4.85300
H          5.00400        4.52600        5.04800
H          6.31900        3.86700        4.41700
H          6.05500        5.43800        4.25900
C          6.42700        2.31100        6.92500
H          5.45600        2.29200        7.05000
H          6.84700        1.66600        7.53200
H          6.64400        2.07700        6.00000
C         11.03300        1.58200        4.70100
H         11.19900        0.62100        4.87000
H         10.31300        1.62800        4.02400
C         12.23600        2.10300        4.06400
H         12.44900        1.52200        3.28900
H         12.98400        2.02200        4.70500
C         12.19100        3.58900        3.55600
H         12.94500        3.74800        2.93300
H         11.34800        3.74500        3.06200
C         12.28000        4.56600        4.72600
H         12.89500        5.29400        4.45700
H         12.71400        4.08600        5.47800
C         11.71600        2.30700        7.45800
C         12.65600        1.29200        7.46200
H         12.60400        0.59800        6.81600
C         13.68400        1.28100        8.40900
H         14.33700        0.59100        8.39200
C         13.75300        2.27100        9.36900
H         14.44500        2.25600       10.02100
C         12.81300        3.27700        9.37700
H         12.86300        3.96600       10.03200
C         11.79100        3.29000        8.43200
H         11.13700        3.97900        8.45500
C          9.38900        0.80600        6.86200
C          8.63000        0.01900        5.98500
H          8.62700        0.21500        5.05500
C          7.88700       -1.03900        6.46300
H          7.37100       -1.56100        5.86100
C          7.88500       -1.34900        7.80900
H          7.37200       -2.08100        8.13100
C          8.63700       -0.58600        8.68500
H          8.63500       -0.79100        9.61300
C          9.38700        0.46900        8.21500
H          9.91300        0.97600        8.82400
C         11.38700        6.19200        6.86400
C         10.45300        6.27500        7.89100
C         10.86300        6.92500        9.06800
H         10.23800        7.04500        9.77300
C         12.15300        7.39300        9.22100
H         12.41000        7.81500       10.03400
C         13.07600        7.24900        8.19400
H         13.96900        7.55400        8.31000
C         12.69800        6.66300        7.00300
H         13.31800        6.58100        6.29000
C         10.43300        6.66900        4.15600
C          9.91200        6.36600        2.89800
H          9.69100        5.46700        2.68300
C          9.71200        7.36300        1.96100
H          9.36700        7.14300        1.10300
C         10.01600        8.69500        2.27100
H          9.86100        9.38300        1.63500
C         10.53900        8.99100        3.50400
H         10.76800        9.89100        3.70800
C         10.74100        8.01200        4.45300
H         11.08800        8.24200        5.30700
Cl        17.53700        9.18000       11.59300
Cl        15.05500        9.43200       10.73600
C         16.65100        9.73700       10.23600
H         16.80300       10.70100       10.07400
H         16.87900        9.22700        9.41700
H         10.44300        0.88400        4.40700
H         11.86600        1.16300        4.93100
C         11.29500        2.49200        3.48900
H         11.61900        1.90800        2.75700
H         10.42300        2.85400        3.20300
H         12.01800        4.12200        2.77600
H         13.07100        3.22300        3.44300
Cl        17.04000        9.73900       11.57200
Cl        15.06600       10.03300        9.67600
H         16.90500        8.84900        9.87800
H         17.23100       10.39700        9.77900
