125
C:\Users\Javier\OneDrive - Universitat de Barcelona\Tesi\4 - Contribucions\Treballs\3-PhD\chapter_1\cif\pc4p\UBIFAO.pc4p.pdb
C          2.23200        4.70800       12.77400
C          4.20400        3.68500       12.22900
H          4.82900        3.00500       12.00900
C          4.46500        4.98700       12.36300
H          5.31200        5.40400       12.26500
C          3.14500        7.06900       12.59100
C          3.28600        7.65700       11.32700
C          3.21600        9.05300       11.25900
H          3.32000        9.48300       10.41900
C          2.99700        9.81400       12.38000
H          2.92900       10.75800       12.30500
C          2.87900        9.21500       13.61400
H          2.73500        9.75400       14.38400
C          2.96500        7.82700       13.75500
C          3.54800        6.87200       10.05600
H          3.36700        5.90500       10.24200
C          5.02100        7.01400        9.64600
H          5.20700        7.94800        9.41700
H          5.20000        6.44400        8.86900
H          5.59500        6.74000       10.39200
C          2.66200        7.30600        8.88300
H          1.72500        7.31700        9.16700
H          2.77100        6.67500        8.14200
H          2.92600        8.20200        8.59000
C          2.94900        7.17900       15.12200
H          2.48000        6.30000       15.03400
C          4.38500        6.89200       15.57400
H          4.80900        6.27000       14.94500
H          4.37200        6.49300       16.47000
H          4.89400        7.73000       15.59900
C          2.21800        7.98800       16.19100
H          2.70000        8.82700       16.35300
H          2.17700        7.47000       17.02200
H          1.30900        8.18700       15.88400
C          2.18800        2.24100       12.23400
C          2.45500        1.15000       13.07100
C          1.75500       -0.03500       12.82300
H          1.89800       -0.78400       13.38800
C          0.86600       -0.14200       11.78300
H          0.36500       -0.94200       11.66500
C          0.70000        0.91000       10.91200
H          0.11200        0.81200       10.17300
C          1.37500        2.11800       11.08800
C          3.52200        1.15000       14.14600
H          3.76000        2.09900       14.35100
C          4.78300        0.44200       13.61300
H          4.58500       -0.50800       13.46300
H          5.50500        0.52400       14.27000
H          5.05800        0.85600       12.76900
C          3.08200        0.47600       15.44400
H          2.22700        0.85600       15.73600
H          3.75800        0.62500       16.13600
H          2.97600       -0.48700       15.29200
C          1.33600        3.16800       10.00200
H          1.50400        4.05600       10.43200
C          2.47400        2.91000        9.01000
H          3.32800        2.89400        9.49000
H          2.49000        3.62200        8.33800
H          2.33200        2.04700        8.56900
C         -0.01100        3.25100        9.28000
H         -0.13600        2.44900        8.73200
H         -0.02500        4.04500        8.70700
H         -0.73200        3.31100        9.94000
C         -3.09900        5.46000       14.51000
H         -4.02800        5.57000       14.18400
H         -2.99400        4.52300       14.81300
C         -2.88200        6.39400       15.70800
H         -3.30200        7.26900       15.50700
H         -3.34500        6.01200       16.49500
C         -1.42000        6.62900       16.06900
H         -1.38800        7.26700       16.82600
H         -0.97800        7.06500       15.29900
C         -0.60200        5.39600       16.45100
H         -1.15200        4.86300       17.07800
H          0.18600        5.71300       16.95900
C         -2.30800        7.52600       12.75600
C         -3.61700        7.95700       12.55800
H         -4.33000        7.33400       12.62100
C         -3.89300        9.28500       12.26800
H         -4.79100        9.56500       12.13200
C         -2.87000       10.19300       12.17800
H         -3.05700       11.09800       11.95900
C         -1.56700        9.79200       12.40400
H         -0.86100       10.42700       12.35700
C         -1.28600        8.46600       12.70000
H         -0.39000        8.19800       12.86500
C         -2.80700        4.87500       11.76700
C         -2.89500        5.42100       10.49600
H         -2.56000        6.29600       10.33400
C         -3.46700        4.70200        9.45700
H         -3.52000        5.08600        8.59000
C         -3.96000        3.43200        9.67800
H         -4.36500        2.94600        8.96900
C         -3.86200        2.87100       10.93500
H         -4.18700        1.99000       11.08600
C         -3.29300        3.58300       11.98000
H         -3.23200        3.19000       12.84400
C          1.35500        3.53500       16.22700
C          1.00800        2.83700       17.39100
H          0.10700        2.56500       17.52000
C          1.95300        2.53600       18.35900
H          1.69500        2.06600       19.14500
C          3.26700        2.91600       18.18500
H          3.91100        2.73500       18.85900
C          3.64000        3.56200       17.02800
H          4.54900        3.80200       16.89500
C          2.69000        3.86600       16.05000
H          2.96200        4.30500       15.25300
C         -1.12700        2.77600       15.12800
C         -1.00500        1.89300       14.06100
H         -0.36700        2.06800       13.37800
C         -1.80400        0.75500       13.97900
H         -1.69900        0.15500       13.25100
C         -2.74600        0.49400       14.95000
H         -3.29100       -0.28100       14.89000
C         -2.89200        1.36800       16.01000
H         -3.54600        1.19700       16.67800
C         -2.08600        2.49200       16.10200
H         -2.18800        3.08100       16.84000
N          2.85100        3.51200       12.47300
N          3.26700        5.61800       12.67500
P         -1.93700        5.76500       13.11200
P          0.02200        4.22900       15.13300
Cl         0.28000        6.23000       11.01900
Rh         0.26700        5.14900       13.14500
