93
C:\Users\Javier\OneDrive - Universitat de Barcelona\Tesi\4 - Contribucions\Treballs\3-PhD\chapter_1\cif\pc4p\UFEDOB.pc4p.pdb
B          7.52800        5.99700       25.25100
B          8.13700        7.67600       24.83600
B          9.28000        8.12600       26.14200
B          8.33700        8.20400       27.70200
B          7.73400        6.59100       28.09200
B          6.63100        6.08500       26.80900
B          6.52700        7.40800       25.62200
B          7.58500        8.72900       26.18600
B          6.64600        7.77200       27.36600
N         10.67200        4.34100       25.69000
Ru         9.79400        6.15800       25.22000
P          9.74200        5.53400       23.01200
P         11.98500        6.95400       25.11300
C          9.24000        6.82200       27.27900
C          8.27400        5.63600       26.74000
C         11.33500        5.58200       22.09000
C         12.40300        4.59300       22.60200
C         13.58400        5.26800       23.29800
C         13.35200        5.75500       24.73100
C         11.44200        9.23500       23.55600
C         12.43100        8.42800       24.11800
C         13.77900        8.80100       23.96900
C         14.12200        9.96100       23.28700
C         13.12800       10.76700       22.74500
C         11.79000       10.40200       22.87200
C         12.53100        7.42400       26.80700
C         12.86300        8.73100       27.16600
C         13.12800        9.05200       28.49600
C         13.09300        8.07200       29.47200
C         12.79700        6.76200       29.12300
C         12.51500        6.43700       27.80200
C          8.67200        6.43000       21.81000
C          9.15600        7.53900       21.11200
C          8.36200        8.18000       20.15900
C          7.07100        7.73600       19.90700
C          6.57300        6.64200       20.60700
C          7.37300        5.98600       21.54300
C          9.19200        3.80200       22.67800
C          9.24600        3.27900       21.37900
C          8.81500        1.98500       21.11000
C          8.31900        1.18500       22.13500
C          8.25600        1.68100       23.42700
C          8.68400        2.98700       23.69500
C         11.08900        3.32700       26.02100
C         11.65100        2.03000       26.38800
H         11.13700        1.31700       25.95500
H         11.60800        1.91900       27.36100
H         12.58500        1.98400       26.09400
H          7.14300        5.19500       24.60600
H          8.07800        8.13800       23.85200
H         10.10200        8.87900       26.15000
H         11.15500        5.46200       21.14900
H         11.67900        6.45900       22.15200
H          9.96200        6.56800       27.86200
H         12.00600        3.95100       23.19500
H         12.73800        4.07900       21.83100
H          8.48800        4.74100       27.03600
H         13.90000        5.99500       22.79800
H         14.33200        4.65200       23.34300
H          5.88600        5.34300       27.06000
H         13.16600        4.95800       25.32400
H         14.16300        6.13300       25.03900
H          5.60400        7.58500       25.07500
H          7.36900        9.78800       26.00200
H          7.75900        6.17300       29.05700
H          8.66500        8.83000       28.49200
H          5.77000        8.18800       27.92600
H         14.42600        8.26700       24.39400
H         15.04800       10.22200       23.21900
H         13.33300       11.52600       22.30000
H         11.12700       10.93400       22.47300
H         10.55700        9.00800       23.64000
H          8.61700        3.30900       24.55400
H          7.91700        1.13600       24.15700
H          8.04700        0.30600       21.95100
H          8.86600        1.67900       20.19500
H          9.57900        3.79300       20.65200
H         12.23300        5.56100       27.58600
H         12.77200        6.06400       29.79500
H         13.26400        8.29700       30.35300
H         13.36000        9.95600       28.73200
H         12.92800        9.40300       26.51100
H          9.98400        7.84200       21.27000
H          8.69800        8.87900       19.69000
H          6.55000        8.17800       19.26900
H          5.68300        6.31100       20.40300
H          7.04800        5.25400       21.95900
N         10.62800        3.58800       29.17300
C         10.72100        3.25400       30.25000
C         10.81500        2.87000       31.65100
H         11.24100        3.59100       32.16000
H         11.35100        2.05300       31.73100
H          9.91700        2.70600       32.00700
