80
C:\Users\Javier\OneDrive - Universitat de Barcelona\Tesi\4 - Contribucions\Treballs\3-PhD\chapter_1\cif\pc4p\UZUYOE.pc4p.pdb
Ru         5.37500       10.40300        4.64700
Cl         5.00100       10.69500        6.96800
Cl         5.04600        7.05600        5.08900
P          3.21500       10.00200        3.92200
P          4.99700       12.73000        4.41300
C          7.61300       10.56200        4.50600
H          7.86500       11.36200        5.01300
C          7.18400        9.21100        5.23100
H          7.18000        9.16300        6.17500
B          6.80600       10.72300        2.97200
H          6.69700       11.64100        2.49900
B          8.55000       10.27900        3.14000
H          9.26800       11.10000        2.86800
B          8.79000        9.33100        4.59900
H          9.60400        9.44100        5.29200
B          6.10900        8.27400        4.29000
B          5.83900        9.21300        2.75700
B          7.48400        9.37400        2.04300
H          7.63400        9.46200        0.99500
B          8.69100        8.52200        3.03800
H          9.54900        8.18400        2.65500
B          7.85500        7.86100        4.44100
H          8.13500        6.96500        5.00500
B          7.05100        7.84900        2.85800
H          6.81500        6.98200        2.37100
C          1.93600       11.31200        3.73900
H          2.23900       11.93000        3.02800
H          1.10800       10.87900        3.41500
C          1.57100       12.15700        4.96000
H          0.59300       12.31000        4.95900
H          1.79300       11.64400        5.77800
C          2.27600       13.50600        5.02200
H          1.75500       14.10000        5.61800
H          2.25700       13.90700        4.11800
C          3.72500       13.49400        5.50800
H          3.75000       13.02100        6.37700
H          3.99600       14.43200        5.67800
C          3.31900        9.31300        2.23700
C          4.60100        8.98300        1.79900
C          4.73200        8.44100        0.51100
H          5.59200        8.18700        0.19500
C          3.63000        8.27200       -0.30600
H          3.74100        7.90300       -1.17300
C          2.36700        8.63600        0.13100
H          1.61600        8.53100       -0.44300
C          2.20400        9.15400        1.40200
H          1.34000        9.40300        1.71000
C          2.29800        8.78100        4.92700
C          1.70900        7.65700        4.35000
H          1.81500        7.49300        3.42000
C          0.96700        6.77400        5.11900
H          0.56900        6.01200        4.71600
C          0.80800        7.00100        6.47200
H          0.30000        6.39600        6.99800
C          1.38700        8.10600        7.06100
H          1.27500        8.26400        7.99100
C          2.13500        8.98800        6.29000
H          2.54100        9.74300        6.70100
C          4.65700       13.53700        2.82000
C          4.35100       12.82200        1.66100
H          4.37100       11.87200        1.67100
C          4.02100       13.49400        0.49500
H          3.80900       13.00200       -0.28900
C          3.99600       14.87600        0.46900
H          3.75700       15.33200       -0.32900
C          4.32100       15.59500        1.61000
H          4.32600       16.54400        1.58800
C          4.63900       14.93100        2.77400
H          4.84800       15.42800        3.55500
C          6.53200       13.53800        4.98800
C          6.79900       13.58900        6.34900
H          6.14500       13.28800        6.96800
C          8.01500       14.07600        6.81000
H          8.18900       14.11000        7.74300
C          8.97000       14.51000        5.91500
H          9.80900       14.82500        6.23200
C          8.71200       14.48800        4.55900
H          9.36400       14.80900        3.94700
C          7.49800       13.99600        4.09000
H          7.32500       13.97200        3.15500
