83
C:\Users\Javier\OneDrive - Universitat de Barcelona\Tesi\4 - Contribucions\Treballs\3-PhD\chapter_1\cif\pc4p\UZUYAQ.pc4p.pdb
Ru         1.91200        2.77700        1.55800
H          2.11400        3.96700        2.45000
Cl         0.45800        2.23600       -0.33400
P          2.42900        4.59600        0.13400
P         -0.08900        3.45800        2.54000
C          2.32800        0.55700        1.53400
H          1.69500        0.22700        0.94100
C          3.54100        1.41600        0.87800
H          3.60400        1.44400       -0.03700
B          1.92700        1.06000        3.11100
H          0.96000        0.92700        3.52100
B          2.85700       -0.43100        2.79500
H          2.39800       -1.29900        2.91200
B          3.86600       -0.20700        1.35200
H          3.98500       -0.89100        0.59400
B          4.09900        2.62300        1.96600
H          4.63600        3.48000        1.66700
B          3.08700        2.40300        3.47800
H          2.98200        3.13200        4.28500
B          3.39700        0.71100        4.02900
H          3.30900        0.48200        5.03000
B          4.59200       -0.06000        2.95700
H          5.30300       -0.80400        3.30100
B          5.00900        1.09100        1.67200
H          5.93000        1.12200        1.08300
B          4.73000        1.67200        3.32300
H          5.52600        1.98700        3.92600
C          1.02200        5.51700       -0.60800
H          1.32800        5.91800       -1.46000
H          0.30600        4.87000       -0.82700
C          0.42100        6.62400        0.25500
H          1.05300        7.38400        0.28200
H         -0.41300        6.94300       -0.17300
C          0.10600        6.19900        1.68600
H         -0.32800        6.95400        2.15500
H          0.95500        6.00100        2.15500
C         -0.80900        4.96800        1.77900
H         -1.10900        4.73800        0.86300
H         -1.61300        5.22000        2.29800
C          3.34900        3.99500       -1.33000
C          4.72400        3.72100       -1.23400
H          5.19700        3.94500       -0.44200
C          5.39300        3.12200       -2.29300
H          6.31900        2.92700       -2.21800
C          4.71300        2.80900       -3.45800
H          5.16900        2.37800       -4.17100
C          3.37300        3.12400       -3.58400
H          2.91700        2.94200       -4.39700
C          2.69100        3.70800       -2.52100
H          1.76700        3.91200       -2.60900
C          3.47800        5.97300        0.74200
C          3.92500        6.90800       -0.20200
H          3.77200        6.75900       -1.12700
C          4.59400        8.05600        0.21500
H          4.90200        8.68300       -0.42700
C          4.81000        8.28600        1.56200
H          5.25700        9.07600        1.84300
C          4.37500        7.36300        2.50400
H          4.52200        7.52200        3.42900
C          3.72200        6.20500        2.09300
H          3.44000        5.56800        2.73900
C          0.00900        3.83900        4.33200
C          0.73600        4.94100        4.79400
H          1.22300        5.47300        4.17500
C          0.75700        5.26900        6.14300
H          1.24700        6.02900        6.43700
C          0.07100        4.49600        7.05800
H          0.07900        4.72700        7.97900
C         -0.62700        3.38600        6.62500
H         -1.09100        2.84500        7.25400
C         -0.65600        3.05500        5.27200
H         -1.13600        2.28500        4.98800
C         -1.52200        2.31700        2.48100
C         -2.77600        2.80200        2.89400
H         -2.86800        3.71300        3.14900
C         -3.87900        1.96800        2.93200
H         -4.72700        2.31500        3.18400
C         -3.74900        0.61900        2.60200
H         -4.50000        0.03900        2.64900
C         -2.51100        0.13000        2.20300
H         -2.41400       -0.78900        1.98300
C         -1.41500        0.97700        2.12300
H         -0.58100        0.63800        1.82100
