110
C:\Users\Javier\OneDrive - Universitat de Barcelona\Tesi\4 - Contribucions\Treballs\3-PhD\chapter_1\cif\pc4p\UZUYEU.pc4p.pdb
Ru         6.01400       14.07900        4.39200
Cl         7.48600       13.19200        6.02600
P          7.67300       14.27200        2.73400
P          5.53100       11.83500        3.76800
C          4.37600       14.61200        5.83700
H          4.42600       13.95500        6.46100
C          5.57100       15.70100        5.83700
H          6.21400       15.59900        6.47400
C          8.26400       12.72600        1.94100
H          7.50300       12.30500        1.46400
H          8.94700       12.96100        1.26200
C          8.86700       11.69400        2.90600
H          9.75800       11.42400        2.57000
H          8.99300       12.11700        3.79300
C          8.00200       10.45300        3.06900
H          8.58100        9.70500        3.36100
H          7.63100       10.21300        2.18100
C          6.84800       10.57700        4.05400
H          7.23800       10.75500        4.94500
H          6.40600        9.69200        4.10500
C          9.23300       15.04800        3.31400
C          9.37600       15.58500        4.59500
H          8.65000       15.54500        5.20500
C         10.57300       16.17900        4.98400
H         10.66000       16.54800        5.85500
C         11.63900       16.23000        4.10000
H         12.46200       16.61900        4.37200
C         11.50500       15.71600        2.82400
H         12.23400       15.76100        2.21500
C         10.31400       15.13400        2.43000
H         10.22800       14.79000        1.55000
C          7.28500       15.28000        1.25200
C          7.64800       16.62700        1.17800
H          8.12500       17.03000        1.89300
C          7.31100       17.37600        0.05900
H          7.56600       18.28900        0.01200
C          6.61200       16.81000       -0.98700
H          6.37200       17.33600       -1.74000
C          6.25900       15.47200       -0.93300
H          5.78700       15.07600       -1.65400
C          6.59600       14.71000        0.17800
H          6.35600       13.79200        0.20800
C          4.87200       11.42600        2.12000
C          4.30600       12.40600        1.31400
H          4.30700       13.31200        1.60200
C          3.73900       12.07100        0.09200
H          3.35700       12.74800       -0.45600
C          3.73000       10.74900       -0.33300
H          3.34400       10.52100       -1.17000
C          4.28400        9.76700        0.46300
H          4.27500        8.86200        0.17500
C          4.85500       10.09600        1.68400
H          5.23500        9.41500        2.22700
C          4.26600       11.12700        4.89100
C          3.05900       10.62300        4.42600
H          2.84400       10.68800        3.50200
C          2.16400       10.02600        5.30200
H          1.34200        9.68200        4.97200
C          2.46000        9.92900        6.64500
H          1.84600        9.51400        7.23900
C          3.64900       10.43600        7.12400
H          3.85100       10.37400        8.05100
C          4.55600       11.04000        6.25500
H          5.37200       11.39200        6.59000
B          3.78700       14.36200        4.24300
H          3.24800       13.49300        3.98600
B          2.89300       15.32600        5.48400
H          1.98700       14.91300        5.92500
B          4.06400       16.14800        6.52300
H          3.98600       16.24900        7.59500
B          5.90400       16.31200        4.27000
H          6.84000       16.74400        4.02600
B          4.69500       15.49000        3.19300
H          4.73800       15.43400        2.14200
B          3.08200       15.95600        3.83600
H          2.21200       16.03200        3.14000
B          3.25800       17.04700        5.22700
H          2.56500       17.81400        5.47800
B          4.99700       17.26000        5.51500
H          5.49900       18.06300        5.98600
B          4.39600       17.15200        3.85500
H          4.45400       17.99600        3.18600
C          5.82300       21.81800        4.76800
H          5.77800       21.04300        4.17300
H          6.75900       22.07600        4.89900
H          5.33100       22.56500        4.36900
C          5.19200       21.45700        6.13400
H          5.70800       20.72500        6.48000
H          4.31700       21.11200        5.94700
C          5.02200       22.42900        7.26900
H          4.71700       21.94700        8.04200
H          4.32300       23.04000        7.02500
C          6.12300       23.14400        7.65900
H          5.86700       23.71200        8.39100
C          6.10300       22.04800        7.02500
H          6.12300       22.97400        6.77700
H          6.95600       21.69100        6.76800
H          5.15200       20.50400        6.25000
H          4.31400       21.83100        6.23800
C          6.42300       21.81800       10.55000
H          6.46900       21.04300       11.14600
H          5.48800       22.07600       10.42000
H          6.91600       22.56500       10.95000
C          7.05400       21.45700        9.18400
H          6.53800       20.72500        8.83900
H          7.92900       21.11200        9.37200
C          7.22500       22.42900        8.04900
H          7.52900       21.94700        7.27600
H          7.92400       23.04000        8.29300
H          6.38000       23.71200        6.92700
