103
C:\Users\Javier\OneDrive - Universitat de Barcelona\Tesi\4 - Contribucions\Treballs\3-PhD\chapter_1\cif\pc4p\VIKZOH.pc4p.pdb
Ru        25.23300        4.04500        7.97400
P         24.63400        4.68000        5.82400
P         26.96200        5.59500        8.09600
O         26.82300        2.72600        7.50900
O         28.23600        1.22700        8.32800
O         25.76800        0.94200       14.23200
O         27.53100        0.05100       13.28100
H         27.73400       -0.20600       14.01900
N         23.78200        2.54200        7.82600
N         23.57200        4.97700        8.76600
N         25.70000        3.16900        9.83900
C         23.98000        1.32000        7.31100
H         24.82400        1.09500        6.99300
C         22.96800        0.39200        7.24100
H         23.12500       -0.45200        6.87900
C         21.73100        0.72300        7.71300
H         21.03700        0.10400        7.67500
C         21.51100        1.95200        8.23300
H         20.66800        2.18100        8.55600
C         22.55600        2.87300        8.28300
C         22.43200        4.23800        8.78800
C         21.25100        4.76700        9.26800
H         20.47500        4.25400        9.24800
C         21.21000        6.02900        9.77100
H         20.41200        6.39300       10.07500
C         22.36500        6.75000        9.82200
H         22.37100        7.60600       10.18700
C         23.52300        6.19100        9.32500
H         24.30900        6.68300        9.38200
C         25.05500        3.35900       10.99700
H         24.36200        3.98000       11.02800
C         25.37400        2.67500       12.13600
H         24.89700        2.82600       12.92100
C         26.40100        1.76600       12.11800
C         27.08800        1.56500       10.92700
H         27.79600        0.96000       10.88600
C         26.70800        2.27000        9.81200
C         26.65700        1.00200       13.38300
C         27.31800        2.04600        8.46000
C         22.86600        5.15400        5.73600
C         22.46600        6.45600        5.92200
H         23.10600        7.12200        6.01400
C         21.12300        6.79400        5.97500
H         20.87000        7.67900        6.11100
C         20.17200        5.82800        5.82900
H         19.27000        6.05600        5.86300
C         20.53900        4.52900        5.63300
H         19.88800        3.87200        5.53000
C         21.88600        4.18800        5.58700
H         22.13000        3.30200        5.45500
C         24.80400        3.40800        4.53200
C         24.03600        3.43800        3.38500
H         23.33800        4.04600        3.31100
C         24.30000        2.57600        2.35300
H         23.76800        2.59500        1.59000
C         25.33300        1.68900        2.43400
H         25.50600        1.11200        1.72600
C         26.10800        1.65000        3.54800
H         26.82000        1.05500        3.59700
C         25.83800        2.48900        4.60300
H         26.35600        2.43900        5.37400
C         25.45000        6.06200        4.92400
H         24.92400        6.26100        4.13400
H         25.42800        6.84800        5.49200
C         26.89300        5.83200        4.48700
H         27.00500        4.88700        4.29800
H         27.03800        6.31100        3.65500
C         27.98100        5.28500        9.58000
C         27.41400        5.59400       10.80100
H         26.54200        5.92200       10.83600
C         28.12600        5.42000       11.96700
H         27.73500        5.60900       12.78900
C         29.43000        4.95900       11.90900
H         29.93900        4.89600       12.68500
C         29.97000        4.59800       10.70800
H         30.82800        4.24500       10.67400
C         29.25200        4.75200        9.54800
H         29.62700        4.49400        8.73500
C         26.85500        7.41800        8.18700
C         25.74400        8.14600        7.81000
H         24.97500        7.69900        7.53800
C         25.75500        9.53500        7.83200
H         24.99400       10.01000        7.59100
C         26.88900       10.19900        8.20600
H         26.89500       11.12900        8.22500
C         28.01100        9.50500        8.55300
H         28.78700        9.96100        8.78900
C         27.99500        8.13200        8.55300
H         28.76100        7.66900        8.80300
C         28.16600        5.40900        6.71200
H         29.05100        5.60600        7.06000
H         28.16600        4.47600        6.44500
C         27.96500        6.24800        5.46300
H         27.77300        7.15500        5.74400
H         28.80700        6.27200        4.98400
O         26.32000        1.49700       14.50000
P         21.52100        3.87400       13.20200
F         21.63700        3.05100       11.89300
F         20.41900        4.79900       12.59300
F         21.48800        4.74000       14.52900
F         22.66800        3.01700       13.83200
F         22.61200        4.84700       12.61100
F         20.46300        2.88300       13.80100
