114
C:\Users\Javier\OneDrive - Universitat de Barcelona\Tesi\4 - Contribucions\Treballs\3-PhD\chapter_1\cif\pc4p\VIKZUN.pc4p.pdb
Ru         6.66800        7.97600       11.27700
P          7.72400        5.91300       11.31100
P          8.56400        9.25600       11.85200
O          5.94400        8.05600       13.24000
N          5.50300        9.75600       11.25000
N          6.85000        7.98800        9.21600
O          4.58400        9.16700       14.60200
N          4.89800        7.02000       10.68700
O          2.74200       13.75200       10.58800
C          4.01800        6.42000       11.48700
H          4.20800        6.35700       12.39400
C          4.85900        9.97500       12.41100
C          7.05400        4.82800       10.00100
O          2.19000       13.19500       12.67000
C          5.13500        9.01000       13.52800
C          8.57800        8.62700       14.59400
H          8.01400        7.92200       14.36500
C          5.29200       10.56700       10.22800
H          5.73700       10.40700        9.42900
C          8.97800        9.53200       13.62300
C          3.99800       11.03400       12.56900
H          3.57300       11.17700       13.38400
C          7.63900        4.81500       12.76600
C          2.84300        5.89300       11.02000
H          2.26300        5.45200       11.59900
C          5.71300        7.66600        8.55400
C          8.35100       10.97300       11.25700
C          4.43100       11.64800       10.30900
H          4.30000       12.20400        9.57600
C          9.51000        5.93300       10.98700
H          9.82100        5.03100       10.81100
H          9.69400        6.47600       10.20600
C          5.96900        4.00700       10.25900
H          5.61700        3.94700       11.11800
C         10.26600        8.88100       11.22700
H         10.19500        8.63900       10.28900
H         10.79000        9.69500       11.27500
C          7.89900        8.37100        8.47400
H          8.69700        8.56900        8.90700
C          4.62700        7.11500        9.36800
C         11.03500        7.77900       11.94000
H         11.80900        7.54900       11.40500
H         11.35800        8.12900       12.78400
C         10.25000        6.51400       12.21600
H          9.59900        6.70000       12.91100
H         10.85800        5.84000       12.55700
C          7.61800       11.88400       12.01200
H          7.30400       11.64800       12.85600
C          7.55700        4.89700        8.71100
H          8.29800        5.42800        8.53100
C          9.00900        8.76500       15.90800
H          8.75600        8.13900       16.54800
C          6.95800        5.15300       13.91800
H          6.50200        5.96200       13.96400
C          3.77000       11.88900       11.49800
C          3.43600        6.63100        8.85600
H          3.24700        6.71800        7.95100
C          8.30500        3.58600       12.72600
H          8.76800        3.33800       11.96100
C          9.79000       10.58800       13.99100
H         10.06800       11.20400       13.35300
C          7.85700        8.48700        7.10900
H          8.61500        8.74700        6.63800
C          2.53400        6.02500        9.69300
H          1.72400        5.70800        9.36300
C          5.62000        7.79300        7.18700
H          4.82200        7.59000        6.75400
C          6.95900        4.18000        7.68800
H          7.28200        4.25600        6.82000
C          6.94700        4.29400       15.00400
H          6.48900        4.53300       15.77700
C          2.81100       13.01300       11.66500
C          8.81400       11.36100       10.01200
H          9.31900       10.76800        9.50400
C          7.60600        3.09300       14.94800
H          7.59300        2.52200       15.68000
C          7.36100       13.14300       11.49600
H          6.87100       13.75100       12.00500
C          8.27700        2.73700       13.82100
H          8.71900        1.92000       13.78400
C          6.71400        8.22300        6.45800
H          6.65800        8.32600        5.53500
C          9.79900        9.80700       16.26100
H         10.07800        9.89800       17.14500
C         10.19200       10.73200       15.31700
H         10.72800       11.45100       15.56400
C          5.41400        3.27100        9.21900
H          4.69700        2.70300        9.39300
C          8.53400       12.63100        9.51200
H          8.84000       12.87700        8.66900
C          7.81100       13.51500       10.25800
H          7.62400       14.36400        9.92900
C          5.89900        3.36300        7.95100
H          5.50900        2.87100        7.26300
C          1.79300       14.84700       10.59500
H          2.18800       15.63200       11.00700
H          1.00100       14.60200       11.09600
C          1.44900       15.12500        9.21100
H          2.23500       15.40000        8.73500
H          0.79400       15.82700        9.18000
H          1.08900       14.33300        8.80700
P          5.53400       12.35500        6.15800
F          6.75800       13.32000        6.08300
F          4.72500       13.25800        7.10500
F          6.10200       11.57700        7.36800
F          5.05500       12.97300        4.75300
F          6.26100       11.27400        5.13700
F          4.27800       11.37400        6.04900
F          6.77500       11.48200        5.73400
F          6.35300       13.63300        5.59300
F          4.96800       12.05700        4.85300
F          4.76000       11.13700        6.83100
F          5.76000       12.94000        7.60200
F          4.28200       13.36800        6.26500
