126
C:\Users\Javier\OneDrive - Universitat de Barcelona\Tesi\4 - Contribucions\Treballs\3-PhD\chapter_1\cif\pc4p\VUFLOA.pc4p.pdb
Ru         1.98300        1.77100        4.63800
P          2.88100        2.86600        6.42400
P          2.85600       -0.29300        5.19400
O          0.91100        0.76400        3.04400
O         -4.23400        0.20900        4.20200
N          3.49300        2.51800        3.42300
N          1.08800        3.50300        3.86600
C          2.17100        2.55000        8.08400
C          2.56300        3.29800        9.19100
H          3.18800        3.97800        9.09000
C          2.03000        3.03900       10.43800
H          2.28400        3.56000       11.16500
C          1.13000        2.02000       10.61100
H          0.78100        1.84500       11.45500
C          0.74500        1.25900        9.53800
H          0.14600        0.55800        9.65700
C          1.24700        1.53200        8.27300
H          0.96200        1.02900        7.54500
C          2.68900        4.67700        6.22000
C          1.64800        5.37100        6.81500
H          1.08700        4.93600        7.41700
C          3.26800        6.69300        5.03100
H          3.81100        7.13600        4.42100
C          3.51500        5.36200        5.33500
H          4.23600        4.92500        4.94400
C          4.69900        2.76300        6.75100
H          5.15600        2.82000        5.89600
H          4.95200        3.54700        7.26200
C          5.24200        1.54100        7.48200
H          6.16000        1.72800        7.73200
H          4.73700        1.43800        8.30300
C          5.22000        0.21000        6.75200
H          5.86500       -0.38000        7.17400
H          5.51500        0.35700        5.84000
C          3.85600       -0.51000        6.71200
H          3.33000       -0.20300        7.46700
H          4.01300       -1.46000        6.83700
C          3.85000       -1.11600        3.89300
C          4.70300       -2.17200        4.19400
H          4.81600       -2.43100        5.08000
C          5.38600       -2.84100        3.19800
H          5.95400       -3.54500        3.41300
C          5.22300       -2.45900        1.88500
H          5.68400       -2.90700        1.21200
C          4.38700       -1.42400        1.56500
H          4.28200       -1.16700        0.67800
C          3.69600       -0.75800        2.56800
H          3.12000       -0.06100        2.34500
C          1.53300       -1.54700        5.43000
C          0.96900       -1.79800        6.68200
H          1.29200       -1.35300        7.43200
C         -0.06500       -2.70300        6.81400
H         -0.42400       -2.86900        7.65500
C         -0.57100       -3.36000        5.72300
H         -1.27400       -3.96000        5.82500
C         -0.03300       -3.12800        4.47800
H         -0.37400       -3.56800        3.73300
C          1.01700       -2.23500        4.33900
H          1.38500       -2.09400        3.49700
O          0.14300        1.30200        5.50800
C         -0.75000        0.82100        4.69500
C         -0.25500        0.44000        3.35400
C         -1.12300       -0.27900        2.42400
C         -2.48300       -0.36700        2.73000
C         -3.34100       -0.98400        1.83600
H         -4.25300       -1.02400        2.01400
C         -2.83700       -1.54100        0.67900
H         -3.41700       -1.95300        0.08100
C         -1.49900       -1.49600        0.39500
H         -1.17500       -1.89300       -0.38200
C         -0.62400       -0.85800        1.26800
H          0.28600       -0.81800        1.07800
C         -3.01600        0.20500        4.00400
C         -2.08800        0.72800        4.98300
C         -2.64000        1.26500        6.27600
H         -1.92300        1.34100        6.92500
H         -3.29800        0.64500        6.62700
C         -3.28100        2.61800        6.07400
C         -2.98000        3.74600        6.66700
C         -1.90000        3.89700        7.70200
H         -2.30000        4.00400        8.56800
H         -1.36700        4.66900        7.49800
H         -1.34400        3.11400        7.70100
C         -0.12500        3.97300        4.20500
H         -0.58400        3.57100        4.90700
C         -0.70700        5.02300        3.55100
H         -1.54200        5.33800        3.81000
C         -0.04500        5.60200        2.51300
H         -0.43100        6.31100        2.05100
C          1.19400        5.13600        2.14500
H          1.64900        5.52000        1.43100
C          1.76100        4.08600        2.85600
C          3.11800        3.58500        2.64000
C          4.77000        2.09700        3.32200
H          5.03900        1.37400        3.84100
C          5.69300        2.68500        2.48700
H          6.56700        2.36700        2.45400
C          5.30900        3.74700        1.70100
H          5.91600        4.15800        1.13000
C          4.02200        4.18600        1.77900
H          3.74600        4.89800        1.24800
C         -3.73500        5.01300        6.36600
H         -4.35900        4.85200        5.65500
H         -3.11700        5.69800        6.10200
H         -4.21000        5.29600        7.15100
C          1.44100        6.70800        6.51900
H          0.75000        7.16800        6.93900
C          2.23000        7.35700        5.62500
H          2.06600        8.24800        5.41800
H         -3.99000        2.74900        5.30800
P          7.65300        7.13000        2.25000
F          9.09500        7.21600        1.70300
F          7.93400        7.86000        3.47200
F          7.26100        6.38100        0.82700
F          6.17500        6.87900        2.70500
F          7.30600        8.55100        1.77800
F          7.95300        5.62500        2.61900
F          8.84200        7.29200        1.26400
F          8.75300        7.34200        3.48300
F          6.68600        6.88800        1.19900
F          6.55400        7.11700        3.38700
Cl        -1.28500        4.10000       -1.03700
Cl        -2.23800        2.60900        1.15500
C         -2.39900        4.02100        0.17000
H         -3.28700        4.03300       -0.22000
H         -2.31100        4.80700        0.73100
