104
C:\Users\Javier\OneDrive - Universitat de Barcelona\Tesi\4 - Contribucions\Treballs\3-PhD\chapter_1\cif\pc4p\XABBIO.pc4p.pdb
C         13.69000        1.21800       19.64100
C         12.75800        2.02500       20.28700
H         11.86500        1.99500       20.02800
C         13.15000        2.87700       21.31700
H         12.52100        3.41700       21.73700
C         14.45700        2.91700       21.70900
H         14.71400        3.47900       22.40500
C         15.39300        2.13300       21.08300
H         16.28200        2.16300       21.35500
C         15.01600        1.29600       20.04800
H         15.65800        0.78000       19.61900
C         14.25100       -1.31200       18.54000
C         14.00500       -2.18900       19.59100
H         13.27000       -2.05300       20.14400
C         14.84800       -3.26900       19.81400
H         14.66400       -3.86100       20.50500
C         15.94200       -3.47500       19.03300
H         16.51500       -4.18700       19.20500
C         16.19000       -2.62500       17.99700
H         16.93100       -2.76900       17.45300
C         15.35000       -1.54500       17.74400
H         15.53300       -0.97600       17.03200
C         11.51900       -0.40800       18.81400
H         11.56600       -0.60400       19.76100
H         10.88300        0.31400       18.69100
C         11.01400       -1.65500       18.07000
H         11.74100       -2.01100       17.53600
H         10.77700       -2.32900       18.72600
C          9.81200       -1.42900       17.15500
H          9.02400       -1.33000       17.71100
H          9.68700       -2.22700       16.61900
C          9.88300       -0.22800       16.21000
H          9.72200        0.57600       16.72800
H          9.16200       -0.30400       15.56400
C         11.71700       -1.75900       14.74700
C         12.75500       -2.53700       15.24200
H         13.39700       -2.15300       15.79400
C         12.84200       -3.88700       14.92100
H         13.53700       -4.40400       15.25800
C         11.89600       -4.44800       14.10000
H         11.95800       -5.35000       13.87900
C         10.86400       -3.69700       13.60100
H         10.22800       -4.08700       13.04700
C         10.77300       -2.35900       13.92000
H         10.07100       -1.85100       13.58100
C         10.90000        0.76000       13.71500
C          9.93300        1.76300       13.73200
H          9.49500        1.96700       14.52900
C          9.62000        2.45700       12.58600
H          8.98500        3.13500       12.61400
C         10.23900        2.15700       11.39500
H         10.02600        2.63100       10.62300
C         11.16800        1.15800       11.35300
H         11.57000        0.94000       10.54400
C         11.52300        0.46000       12.50700
H         12.17200       -0.20400       12.47000
C         14.53700        3.61900       17.84400
H         13.71000        3.74300       18.25100
C         15.58700        4.43000       18.22500
H         15.46800        5.08400       18.87500
C         16.80800        4.25300       17.62800
H         17.53700        4.76800       17.88600
C         16.94000        3.30700       16.64700
H         17.75800        3.19100       16.22000
C         15.85000        2.51900       16.28800
C         15.89300        1.51100       15.22000
C         16.96100        1.41200       14.33200
H         17.69400        1.97500       14.41900
C         16.92900        0.47800       13.32500
H         17.64000        0.39600       12.73200
C         15.82400       -0.33600       13.21100
H         15.77600       -0.97600       12.53700
C         14.79600       -0.18800       14.11300
H         14.05500       -0.74600       14.02600
C         11.84000        3.63700       15.53600
C         13.14500        3.26500       13.64000
H         13.76200        2.73700       13.18700
C         12.68700        4.40400       13.04900
H         12.96700        4.63800       12.19400
C         11.80500        5.20400       13.74300
H         11.50100        5.99600       13.36000
C         11.36800        4.84200       14.99100
H         10.77700        5.38200       15.46500
N         14.65500        2.66100       16.91200
N         14.79700        0.71200       15.10800
N         12.73000        2.88900       14.85100
P         13.17300        0.15200       18.23500
P         11.46800       -0.00800       15.28100
S         11.41000        2.85200       17.02500
Ru        13.12100        1.33000       16.24600
P         18.19800        3.27500       10.80900
F         17.37500        1.97700       10.52600
F         19.07700        4.58800       11.11100
F         18.87000        2.47500       11.99900
F         17.48700        4.02300        9.57900
F         17.13800        3.67300       11.87400
F         19.21700        2.70700        9.74300
P         18.17600        3.46700       10.74500
F         17.03000        2.43300       10.52200
F         19.47300        4.39800       10.94400
F         18.17700        3.30100       12.31000
F         18.27600        3.81300        9.18700
F         17.18500        4.65000       10.91400
F         19.26700        2.34300       10.54800
