156
C:\Users\Javier\OneDrive - Universitat de Barcelona\Tesi\4 - Contribucions\Treballs\3-PhD\chapter_1\cif\pc4p\XAFRIF.pc4p.pdb
Cd         7.28200       14.62500        6.18600
Cl         5.76900       16.37600        7.04600
Cl         9.26500       15.85100        5.44200
Cl         6.19100       13.35700        4.38700
Cl         7.91000       12.97600        7.90000
Pd         2.75400       17.21200        8.95200
S          1.58400       17.37000        6.93400
S          2.49800       19.51600        8.54900
P          3.78700       17.44800       10.98600
P          2.68500       14.91600        9.03600
N          1.05600       19.93400        6.32200
C          1.63100       19.07100        7.14600
C          1.00400       21.39500        6.62100
H          0.10200       21.71900        6.46800
H          1.21800       21.53800        7.55400
C          1.94100       22.16300        5.78400
H          2.84100       21.93700        6.02400
H          1.79700       23.10300        5.92400
H          1.79200       21.95200        4.86100
C          0.72200       19.47900        4.84900
C         -0.79300       19.05000        4.97100
C          4.30300       15.93200       11.84200
H          4.62000       16.16300       12.72900
H          3.53600       15.34900       11.94400
C          5.43400       15.16600       11.08200
H          5.78500       15.73500       10.38100
H          6.15600       14.97800       11.70000
C          4.96400       13.85200       10.46100
H          5.74000       13.28400       10.32800
H          4.38500       13.40400       11.09900
C          4.23600       13.95800        9.16400
H          4.03900       13.05500        8.87100
H          4.85600       14.33200        8.51800
C          2.72900       18.33000       12.15700
C          1.95500       17.65500       13.09100
H          2.00300       16.72700       13.13800
C          1.11300       18.34200       13.95300
H          0.59800       17.87300       14.57100
C          1.03900       19.69500       13.89600
H          0.47500       20.15800       14.47400
C          1.78400       20.36400       12.99800
H          1.72700       21.29300       12.96600
C          2.62200       19.71800       12.13400
H          3.12500       20.21000       11.52600
C          5.30100       18.43500       10.93600
C          5.95900       18.72800       12.09600
H          5.59400       18.48500       12.91800
C          7.20000       19.40100       12.04100
H          7.66000       19.59400       12.82600
C          7.71700       19.76400       10.84500
H          8.53400       20.20800       10.81300
C          7.06300       19.49200        9.69900
H          7.41400       19.76200        8.88000
C          5.87100       18.81100        9.75400
H          5.43700       18.60100        8.95800
C          1.95500       14.29200        7.49700
C          2.69400       14.29200        6.32000
H          3.60000       14.50600        6.34500
C          2.10700       13.97500        5.11700
H          2.61800       13.96000        4.34300
C          0.76400       13.68600        5.06000
H          0.36600       13.50600        4.23900
C         -0.00200       13.65700        6.22100
H         -0.90400       13.43500        6.18700
C          0.60500       13.96700        7.44000
H          0.10000       13.95600        8.22100
C          1.59200       14.33600       10.34700
C          1.70400       13.04700       10.89100
H          2.34500       12.46200       10.55900
C          0.87500       12.63800       11.91000
H          0.96800       11.78700       12.27200
C         -0.09700       13.49100       12.39500
H         -0.65000       13.22200       13.09100
C         -0.23900       14.73500       11.84200
H         -0.90900       15.30100       12.15300
C          0.59600       15.16200       10.83400
H          0.48700       16.01500       10.47600
Pd        11.84500       11.65500        9.84400
S         11.98800        9.42700        9.11500
S         12.90900       11.74900        7.75400
P         11.94700       13.91200       10.19900
P         10.71000       11.16100       11.77900
N         13.22100        9.27200        6.73700
C         12.78900       10.03600        7.72000
C         13.15700        7.77900        6.82600
H         12.37300        7.51400        7.33200
H         13.08600        7.39900        5.93700
C         14.36200        7.27900        7.48200
H         15.13800        7.62400        7.03400
H         14.37200        6.32000        7.44400
H         14.36900        7.56300        8.39900
C         13.73500        9.85300        5.47700
H         13.43200        9.30500        4.73600
H         13.35300       10.73700        5.36300
C         15.16400        9.95700        5.41600
H         15.50900       10.12300        6.29700
H         15.40800       10.68100        4.83600
H         15.53000        9.13700        5.07700
C          9.89400       12.50300       12.67400
H          9.40900       12.11100       13.41700
H         10.58400       13.07200       13.05100
C          8.92000       13.39800       11.89300
H          8.63400       12.92300       11.09700
H          8.13300       13.55000       12.44100
C          9.49300       14.75100       11.47600
H          8.75400       15.36600       11.35900
H         10.03300       15.08500       12.20800
C         10.34000       14.78900       10.21200
H         10.51300       15.72100       10.00400
H          9.80400       14.43000        9.48800
C         11.71200       10.30900       13.04000
C         12.65600        9.38000       12.65300
H         12.80800        9.23600       11.74700
C         13.38000        8.66100       13.58700
H         14.00100        8.02800       13.30500
C         13.18500        8.88300       14.94200
H         13.66200        8.39600       15.57500
C         12.27400        9.83400       15.32900
H         12.16000       10.01300       16.23300
C         11.53100       10.52100       14.40800
H         10.89800       11.13600       14.69800
C          9.34300       10.05600       11.40400
C          8.88300        9.09500       12.29700
H          9.35900        8.93300       13.08100
C          7.72200        8.37100       12.04100
H          7.41900        7.73800       12.65100
C          7.02500        8.60100       10.88100
H          6.25300        8.11300       10.70500
C          7.45600        9.54100        9.97200
H          6.96300        9.70500        9.20000
C          8.62900       10.24700       10.21800
H          8.94200       10.85500        9.58700
C         12.81000       14.43800       11.71500
C         12.90700       15.78500       12.04900
H         12.55900       16.42800       11.47100
C         13.50600       16.17700       13.21000
H         13.58100       17.08200       13.41100
C         14.00200       15.24500       14.08000
H         14.37400       15.51700       14.88900
C         13.95200       13.91700       13.76900
H         14.31400       13.28800       14.35100
C         13.35800       13.50400       12.57000
H         13.33400       12.59900       12.35200
C         12.83900       14.76200        8.86500
C         14.15500       15.15600        9.00100
H         14.62500       14.95700        9.78000
C         14.77000       15.84900        7.97800
H         15.64300       16.14800        8.09200
C         14.12500       16.10200        6.80500
H         14.55900       16.55900        6.11900
C         12.83800       15.67500        6.64200
H         12.38800       15.84700        5.84600
C         12.20300       14.99200        7.65800
H         11.33600       14.68100        7.53100
C         -0.05900       19.48600        5.39100
C          0.74500       19.12000        4.22800
