106
C:\Users\Javier\OneDrive - Universitat de Barcelona\Tesi\4 - Contribucions\Treballs\3-PhD\chapter_1\cif\pc4p\XELYIY.pc4p.pdb
Ru         0.85000        6.15500        3.50900
Cl         0.52200        7.92200        1.93400
P          0.42700        7.58200        5.27800
P          3.16500        6.80100        3.48100
C         -0.77100        4.77700        2.61800
C          0.71400        4.19000        2.28600
B         -0.97600        5.11100        4.28500
H         -1.80500        5.81800        4.57900
B         -1.67300        3.63100        3.52800
H         -2.56900        3.64800        3.41500
B         -0.61000        3.08900        2.27200
H         -0.99900        2.81700        1.23800
B          1.65400        4.11500        3.77400
H          2.74000        4.20400        3.62400
B          0.55200        4.65400        5.13400
B         -0.83600        3.50600        5.08000
H         -1.33600        3.40100        6.00700
B         -0.57500        2.26900        3.83900
H         -0.98700        1.35600        3.92800
B          0.94700        2.67200        2.99900
H          1.65000        2.07100        2.42600
B          0.81100        2.90000        4.76600
H          1.09300        2.05100        5.46300
C         -1.57900        5.50200        1.55200
H         -2.30900        4.92300        1.24700
H         -0.99700        5.72100        0.79500
H         -1.95300        6.32600        1.92900
C          1.28900        4.41800        0.91000
H          0.76400        3.91800        0.24900
H          2.21900        4.11200        0.88800
H          1.25400        5.37500        0.69700
C          1.33100        9.14800        5.50000
H          1.27000        9.67100        4.66200
H          0.88600        9.67200        6.21300
C          2.81400        8.97600        5.86700
H          3.01600        9.55600        6.64300
H          2.96200        8.03900        6.14800
C          3.79100        9.30400        4.74900
H          4.70300        9.05900        5.04900
H          3.78000       10.28400        4.60100
C          3.51600        8.60800        3.40200
H          4.30300        8.74500        2.81600
H          2.74500        9.05500        2.97300
C          0.78700        6.61900        6.78300
C          0.87000        5.23300        6.57100
C          1.22300        4.43600        7.66900
H          1.24400        3.49100        7.57300
C          1.54600        5.00400        8.90100
H          1.80900        4.44600        9.62500
C          1.48700        6.37300        9.07500
H          1.71800        6.75900        9.91000
C          1.08400        7.17900        8.01900
H          1.01100        8.11800        8.14100
C         -1.29800        8.18700        5.39300
C         -2.02600        8.02600        6.55900
H         -1.63000        7.61300        7.31500
C         -3.35300        8.47700        6.61500
H         -3.85500        8.36300        7.41400
C         -3.93500        9.09000        5.52000
H         -4.83700        9.38600        5.56200
C         -3.20200        9.27200        4.36200
H         -3.59300        9.70200        3.61200
C         -1.88800        8.81900        4.30400
H         -1.38600        8.94300        3.50700
C          4.43500        6.22000        4.66900
C          5.77500        6.48200        4.38000
H          6.00400        6.93600        3.57800
C          6.77000        6.08400        5.25100
H          7.68200        6.23800        5.03000
C          6.44700        5.46000        6.44500
H          7.13300        5.19200        7.04500
C          5.11600        5.22700        6.76000
H          4.89000        4.81800        7.58600
C          4.11200        5.59100        5.86700
H          3.20200        5.41000        6.07800
C          3.87600        6.21500        1.89600
C          3.66700        6.93300        0.72000
H          3.17100        7.74300        0.74000
C          4.18300        6.46900       -0.48500
H          4.05000        6.97100       -1.28100
C          4.88500        5.28100       -0.53300
H          5.22800        4.96100       -1.36000
C          5.09000        4.56100        0.63000
H          5.57300        3.74300        0.59900
C          4.59900        5.02600        1.84000
H          4.75300        4.53100        2.63500
C          8.14800        7.44300       -0.40100
H          7.52600        6.78600       -0.72500
H          7.66800        8.03300        0.18400
C          8.66200        8.22500       -1.57900
H          9.13500        7.63500       -2.17100
H          9.28800        8.87900       -1.25900
C          7.55400        8.94500       -2.36200
H          7.95000        9.43000       -3.11700
H          7.09500        9.57600       -1.77200
H          6.91100        8.28500       -2.69600
C          9.22500        6.71200        0.40100
H          9.84700        7.36900        0.72500
H          9.70500        6.12200       -0.18400
C          8.71100        5.93000        1.57900
H          8.23800        6.52000        2.17100
H          8.08500        5.27600        1.25900
C          9.81900        5.21000        2.36200
H          9.42300        4.72500        3.11700
H         10.27800        4.57900        1.77200
H         10.46200        5.87000        2.69600
