86
C:\Users\Javier\OneDrive - Universitat de Barcelona\Tesi\4 - Contribucions\Treballs\3-PhD\chapter_1\cif\pc4p\XESHEL.pc4p.pdb
Ru         6.68000       13.38800        4.61900
Cl         5.86000       15.54700        5.29200
Cl         3.18100       12.19600        9.28000
Cl        10.78300       14.96700        8.64400
Cl         8.15800        8.25900        2.18200
P          8.01100       14.39600        3.01000
P          4.70700       13.13500        3.36100
N          6.23700       11.52400        6.99600
N          5.66700       12.56600        6.32000
N          8.52800       12.41300        6.80400
N          8.24800       13.52500        6.05700
N          7.74500       10.65900        5.18900
N          7.41600       11.50700        4.16900
C          7.20700       15.07000        1.51600
H          6.59300       15.80000        1.78600
H          7.90000       15.46400        0.92900
C          6.41500       14.02400        0.71600
H          6.75400       14.00200       -0.21400
H          6.56400       13.12900        1.11400
C          4.92800       14.31900        0.69500
H          4.47600       13.61900        0.16000
H          4.78600       15.18500        0.23600
C          4.25900       14.38300        2.07300
H          3.28200       14.32500        1.93200
H          4.44400       15.27900        2.45200
C          4.37000       11.49500        2.61200
C          3.67000       11.34400        1.41800
H          3.37000       12.11200        0.94800
C          3.40400       10.08000        0.90700
H          2.93200        9.98900        0.08700
C          3.82600        8.94900        1.58900
H          3.66800        8.08600        1.22500
C          4.47500        9.07900        2.79800
H          4.74100        8.30500        3.28100
C          4.74100       10.34300        3.31200
H          5.18100       10.42500        4.14900
C          3.15800       13.28500        4.36000
C          2.48400       12.15500        4.82000
H          2.81000       11.29100        4.59700
C          1.33700       12.27900        5.60200
H          0.89100       11.50000        5.91500
C          0.84800       13.52400        5.92400
H          0.06600       13.60500        6.45700
C          1.49800       14.65800        5.46900
H          1.15500       15.51700        5.68600
C          2.65100       14.54600        4.69400
H          3.09400       15.33000        4.39200
C          9.36200       13.35400        2.33000
C          9.67000       13.33100        0.96900
H          9.15500       13.84700        0.36100
C         10.72900       12.55600        0.49300
H         10.92100       12.54000       -0.43700
C         11.49700       11.81600        1.36800
H         12.21500       11.28700        1.04100
C         11.21600       11.84700        2.72300
H         11.75500       11.35200        3.32900
C         10.15100       12.59900        3.20200
H          9.95600       12.59900        4.13200
C          8.96700       15.89900        3.49900
C         10.35400       15.88400        3.61600
H         10.82800       15.06900        3.49400
C         11.05100       17.04800        3.90900
H         11.99900       17.02400        3.97700
C         10.38000       18.24100        4.10300
H         10.86000       19.03500        4.31100
C          9.00300       18.26900        3.99300
H          8.53500       19.08600        4.12400
C          8.29800       17.10900        3.68900
H          7.35200       17.14000        3.61000
C          8.95000       14.53600        6.57700
H          8.95100       15.42900        6.25500
C          9.68400       14.07000        7.67100
C          9.39500       12.73200        7.79000
H          9.74200       12.13900        8.44600
C          5.51000       11.24400        8.10100
H          5.69800       10.56900        8.74200
C          4.45200       12.11700        8.12600
C          4.59100       12.93700        7.00900
H          4.00800       13.65000        6.77600
C          8.07100        9.44600        4.69100
H          8.32600        8.68200        5.19400
C          7.96700        9.52200        3.32300
C          7.56800       10.82500        3.03500
H          7.42600       11.17500        2.16300
B          7.68100       11.12900        6.64900
H          8.11000       10.26800        7.34900
