94
C:\Users\Javier\OneDrive - Universitat de Barcelona\Tesi\4 - Contribucions\Treballs\3-PhD\chapter_1\cif\pc4p\XOTCUH.pc4p.pdb
Ru         3.66600        1.21400        5.20200
N          3.21000        2.76900        3.78700
N          5.35000        0.63700        4.05700
N          5.16600        2.59800        5.84000
P          3.77100        0.07100        7.20600
P          2.03700       -0.17600        4.28500
S          1.90300        2.70400        5.98500
S          1.73200        4.91600        3.78800
C          2.33200        3.44000        4.48300
C          3.52300        3.35100        2.50500
H          3.32500        2.71300        1.80200
H          4.46900        3.56000        2.46500
C          2.71100        4.62000        2.28300
H          2.12500        4.51400        1.51800
H          3.30300        5.37100        2.11500
C          5.36500       -0.24200        3.04400
H          4.62600       -0.79600        2.93300
C          6.40300       -0.37200        2.16400
H          6.37400       -1.01900        1.49400
C          7.48600        0.45300        2.27400
H          8.19800        0.38600        1.67700
C          7.50100        1.38100        3.27900
H          8.22200        1.96000        3.36600
C          6.43900        1.45800        4.17300
C          6.37000        2.46900        5.23900
C          7.44000        3.27800        5.59500
H          8.26300        3.16800        5.17600
C          7.28800        4.24200        6.56200
H          8.00900        4.76400        6.82900
C          6.04300        4.41500        7.12400
H          5.89800        5.08700        7.75100
C          5.01800        3.58000        6.74500
H          4.18400        3.70200        7.13400
C          4.23000        1.20100        8.57400
C          5.54700        1.34200        8.99600
H          6.21300        0.81000        8.62400
C          5.87100        2.28000        9.97400
H          6.75600        2.36600       10.25000
C          4.91200        3.07200       10.53400
H          5.14000        3.69000       11.18900
C          3.59900        2.94700       10.11800
H          2.94200        3.49100       10.48700
C          3.26500        2.01700        9.16000
H          2.37700        1.93100        8.89800
C          4.90600       -1.34600        7.53800
C          5.95900       -1.61000        6.68100
H          6.08800       -1.08000        5.92600
C          6.82500       -2.66200        6.93700
H          7.52900       -2.82700        6.35200
C          6.66100       -3.45400        8.03500
H          7.24500       -4.15900        8.19600
C          5.63100       -3.20400        8.89300
H          5.51500       -3.74100        9.64200
C          4.74400       -2.14600        8.65800
H          4.04700       -1.98000        9.25400
C          2.16900       -0.57100        7.81700
H          2.25000       -0.76600        8.76400
H          1.49400        0.11600        7.71100
C          1.70600       -1.84800        7.07900
H          2.43600       -2.16700        6.52400
H          1.51600       -2.53600        7.73800
C          1.38500        0.58500        2.74900
C          1.98100        0.34500        1.52000
H          2.66400       -0.28400        1.45400
C          1.57000        1.03600        0.38400
H          1.95500        0.84100       -0.43900
C          0.59600        2.00200        0.47300
H          0.34200        2.48600       -0.28000
C          0.00600        2.24000        1.68500
H         -0.66500        2.88200        1.74900
C          0.38600        1.54700        2.80400
H         -0.03200        1.72400        3.61600
C          2.31700       -1.90300        3.70800
C          3.39200       -2.66800        4.14500
H          4.04200       -2.28500        4.68800
C          3.49900       -4.00500        3.77100
H          4.21000       -4.52200        4.07800
C          2.55000       -4.56700        2.94200
H          2.63400       -5.45400        2.67700
C          1.48800       -3.82600        2.50500
H          0.84600       -4.21000        1.95200
C          1.37000       -2.50400        2.89100
H          0.64200       -2.00800        2.59600
C          0.48500       -0.45500        5.26100
H          0.31200        0.34100        5.78600
H         -0.25000       -0.55400        4.63500
C          0.47600       -1.66100        6.20400
H         -0.29700       -1.58600        6.78200
H          0.36200       -2.46300        5.67000
Cl        -0.36800        6.59900        0.09000
O          0.25800        7.61900        0.74000
O         -1.73200        6.76200        0.03400
O          0.12300        6.48600       -1.18500
O         -0.14000        5.52600        0.69900
