119
C:\Users\Javier\OneDrive - Universitat de Barcelona\Tesi\4 - Contribucions\Treballs\3-PhD\chapter_1\cif\pc4p\XULBIQ.pc4p.pdb
Ru         9.89300        6.26700        6.08900
Cl         7.89900        5.04900        6.75600
P          8.55900        8.00800        5.33400
P          9.80900        5.10500        4.05400
N         10.01900        7.08600        8.02600
N         11.71100        7.27000        5.99100
N         11.07900        4.69000        7.01200
C          9.13700        7.01300        9.02000
H          8.31000        6.61700        8.85600
C          9.39900        7.50700       10.29500
H          8.75400        7.43700       10.95900
C         10.59300        8.09100       10.57000
H         10.78000        8.40600       11.42400
C         11.54600        8.21000        9.53600
C         12.80800        8.85400        9.69900
H         13.04400        9.19400       10.53000
C         13.66500        8.97400        8.66800
H         14.48300        9.39500        8.80300
C         13.34500        8.47000        7.36600
C         14.17000        8.61100        6.23700
H         14.97800        9.06400        6.30200
C         13.77700        8.08100        5.05500
H         14.32600        8.16100        4.30900
C         12.55300        7.41700        4.94800
H         12.30800        7.06100        4.12500
C         12.12300        7.78000        7.18000
C         11.21200        7.68600        8.28400
C         10.63000        3.98000        8.04000
H          9.81100        4.21700        8.41200
C         11.30600        2.91400        8.58600
H         10.94400        2.44600        9.30500
C         12.54200        2.54400        8.04900
C         13.03600        3.30800        7.02600
H         13.87000        3.11900        6.66400
C         12.29400        4.35900        6.53600
H         12.64900        4.86600        5.84100
C         13.27800        1.33600        8.55500
H         13.98200        1.61700        9.14500
H         13.65300        0.85400        7.81500
H         12.66800        0.76800        9.03300
C          6.11600        8.13500        6.74200
H          5.79500        7.53900        6.10500
C          9.38900        9.58300        4.81200
C          8.99100       10.32400        3.70500
H          8.27500       10.03000        3.18900
C          9.65400       11.49700        3.36100
H          9.37300       11.98500        2.62300
C         10.71900       11.93900        4.10300
H         11.17900       12.70600        3.84400
C         11.11400       11.24500        5.23400
H         11.81900       11.55600        5.75500
C         10.44300       10.08300        5.58000
H         10.70300        9.62100        6.34500
C          7.43200        8.61100        6.65900
C          7.86900        9.49400        7.64700
H          8.74200        9.81400        7.61800
C          7.03300        9.90100        8.66400
H          7.34300       10.49900        9.30500
C          5.74000        9.42600        8.74000
H          5.17800        9.69300        9.43300
C          5.28900        8.55300        7.77700
H          4.41700        8.23600        7.82100
C          7.40700        7.74100        3.91800
H          6.78300        8.48300        3.90900
H          7.93100        7.80300        3.10400
C          6.58400        6.44400        3.83900
H          6.50800        6.07300        4.73300
H          5.69000        6.66600        3.53800
C         10.74300        3.52300        4.15200
C         10.21500        2.49000        4.92800
H          9.37800        2.59000        5.32100
C         10.92600        1.31900        5.11800
H         10.56800        0.63600        5.63800
C         12.17100        1.16400        4.53700
H         12.64700        0.37600        4.66800
C         12.70600        2.17000        3.76800
H         13.54200        2.06100        3.37500
C         12.00000        3.34700        3.57800
H         12.36900        4.02800        3.06200
C         10.34100        5.78300        2.42900
C         10.49400        7.14700        2.22300
H         10.41900        7.72900        2.94500
C         10.75600        7.65400        0.96300
H         10.84400        8.57000        0.83800
C         10.88300        6.78900       -0.11400
H         11.07100        7.12700       -0.95900
C         10.73100        5.43700        0.06700
H         10.81400        4.85900       -0.65700
C         10.45500        4.93500        1.32800
H         10.34400        4.01800        1.44200
C          8.16500        4.41200        3.53500
H          8.33100        3.70100        2.89400
H          7.75400        4.00500        4.31300
C          7.15100        5.36700        2.91800
H          6.41100        4.84400        2.57400
H          7.56900        5.80800        2.16100
C         -0.01300        1.86200        7.87800
H          0.17400        0.93300        7.67400
H         -0.94000        2.04100        7.65400
Cl         0.25900        2.16600        9.63900
Cl         1.04500        2.91100        6.92800
P         -1.79000       12.51700        5.48400
F         -2.65900       11.51200        4.64400
F         -2.36900       13.73300        4.65500
F         -1.01000       13.56600        6.41200
F         -1.35000       11.37500        6.42700
F         -0.64500       12.36600        4.53700
F         -3.08300       12.68600        6.47800
C          0.13700        1.33800        8.15000
Cl         0.32700        2.76000        7.11100
Cl         0.15800        1.85800        9.73700
F         -0.45500       12.77700        6.09400
F         -1.18000       12.88300        4.00900
F         -3.20200       12.34700        4.58400
F         -2.35600       11.69200        6.47800
F         -1.40000       10.97700        4.89200
F         -2.30700       13.85100        5.71400
H         -0.70200        0.89200        7.95600
H          0.86100        0.71200        7.99400
