89
C:\Users\Javier\OneDrive - Universitat de Barcelona\Tesi\4 - Contribucions\Treballs\3-PhD\chapter_1\cif\pc4p\YASPAM.pc4p.pdb
Ru         8.68000        2.16100       11.17000
Cl         7.41300        0.25100       10.44300
P          7.38400        3.35400        9.59800
P         10.38000        1.21900        9.55100
O          6.78600        2.97200       13.36100
N         10.06300        3.55400       11.95800
N          9.67600        1.03900       12.68000
C          7.46500        2.66700       12.48500
C          9.39500       -0.22100       13.01100
H          8.75000       -0.67700       12.52000
C         10.02300       -0.87300       14.05000
H          9.81000       -1.75600       14.25300
C         10.95800       -0.20500       14.76900
H         11.38700       -0.62200       15.47900
C         11.27200        1.10200       14.44100
H         11.91300        1.57000       14.92700
C         10.62400        1.70000       13.38300
C         10.88400        3.07800       12.92400
C         11.91600        3.85900       13.44100
H         12.49500        3.50700       14.07800
C         12.07600        5.14900       13.00600
H         12.76600        5.67400       13.34000
C         11.21300        5.65600       12.08100
H         11.28700        6.53700       11.79300
C         10.22200        4.82100       11.57700
H          9.63700        5.16700       10.94000
C          5.54700        3.24200        9.78300
C          4.91300        2.41900       10.68900
H          5.41900        1.86200       11.23600
C          3.53000        2.41200       10.79800
H          3.11300        1.85100       11.41100
C          2.77400        3.23700        9.99500
H          1.84900        3.24700       10.08500
C          3.36700        4.03200        9.07200
H          2.84800        4.56000        8.50800
C          4.76300        4.05700        8.97000
H          5.17000        4.62200        8.35300
C          7.58100        5.17700        9.65100
C          7.18500        5.84300       10.81300
H          6.72600        5.37500       11.47400
C          7.46300        7.18200       10.99800
H          7.20000        7.60900       11.78200
C          8.13300        7.88600       10.02300
H          8.34100        8.78400       10.15000
C          8.49000        7.24800        8.85400
H          8.92200        7.72600        8.18400
C          8.21300        5.90100        8.66500
H          8.45700        5.48500        7.87000
C          7.58600        2.87800        7.83400
H          7.27900        1.96400        7.72800
H          7.00700        3.44300        7.29800
C          9.00900        2.97600        7.26900
H          8.99600        3.56300        6.49700
H          9.58200        3.38300        7.93600
C         11.09600       -0.28100       10.31500
C         12.17000       -0.15900       11.18300
H         12.56800        0.67000       11.31200
C         12.65400       -1.26600       11.85900
H         13.36200       -1.17400       12.45400
C         12.08900       -2.50200       11.64800
H         12.42200       -3.24500       12.09600
C         11.03700       -2.64300       10.78300
H         10.65800       -3.48100       10.64100
C         10.53700       -1.53100       10.11700
H          9.81900       -1.62700        9.53300
C         11.90000        2.10900        9.01300
C         12.90300        1.43000        8.34300
H         12.81700        0.51800        8.18300
C         14.03200        2.09600        7.91000
H         14.69700        1.62700        7.45900
C         14.18800        3.42900        8.13300
H         14.95700        3.86000        7.84100
C         13.21400        4.14000        8.78800
H         13.31400        5.05000        8.94300
C         12.06600        3.46300        9.21900
H         11.39700        3.93800        9.65700
C          9.69800        0.59600        7.95800
H         10.25300       -0.13800        7.64900
H          8.80800        0.24500        8.11800
C          9.61700        1.64100        6.85400
H          9.09200        1.27800        6.12300
H         10.51200        1.80200        6.51600
P         12.54200        9.30700       10.52700
F         11.90300        8.13000        9.81600
F         13.05200        9.83800        9.16800
F         13.11200       10.48500       11.15000
F         12.03300        8.75000       11.85600
F         13.70000        8.49200       10.68900
F         11.34200       10.10700       10.37800
