81
C:\Users\Javier\OneDrive - Universitat de Barcelona\Tesi\4 - Contribucions\Treballs\3-PhD\chapter_1\cif\pc4p\YASTER.pc4p.pdb
Ru        11.95200       12.76900        3.75500
P         12.62600       14.23100        2.13900
P          9.84600       13.60800        3.87800
S         12.60100       13.86900        5.81900
S         11.69300       10.89900        2.24600
N         11.68700       11.52800        5.47300
N         13.75100       11.60700        3.55100
C         11.49500       15.55500        1.57800
H         10.67000       15.14800        1.27200
H         11.91800       16.02300        0.84000
C         11.15800       16.58400        2.66300
H         11.22300       17.47000        2.27300
H         11.81400       16.49400        3.37200
C          9.76500       16.44200        3.28400
H          9.14300       16.23800        2.56900
H          9.53300       17.29500        3.68200
C          9.60400       15.38200        4.36300
H         10.24100       15.57900        5.06700
H          8.70200       15.46400        4.71100
C         12.24300       12.28300        6.43600
C         12.46000       11.78400        7.73800
H         12.02000       12.38600        8.35900
C         12.02000       10.52300        8.02300
H         13.42300       11.81300        7.90900
C         11.41000        9.77400        7.03600
H         11.08200        8.88400        7.23800
C         11.26100       10.29800        5.76600
H         10.84700        9.76400        5.07100
C         13.34600       10.64600        2.69600
C         14.20600        9.62700        2.26400
H         13.90400        8.93500        1.65600
C         15.50500        9.64900        2.76500
H         16.13500        8.97000        2.47700
C         15.90400       10.62200        3.63500
H         16.80900       10.61900        3.98400
C         15.01300       11.58000        4.01100
H         15.29700       12.27000        4.63000
C         13.14300       13.43400        0.56400
C         12.33100       13.40800       -0.56900
C         12.73500       12.70000       -1.70200
C         13.95200       12.01800       -1.70000
C         14.76500       12.04400       -0.56600
C         14.36000       12.75300        0.56600
H         11.48400       13.88300       -0.57100
H         12.16900       12.68200       -2.49000
H         14.23300       11.52600       -2.48700
H         15.61000       11.57000       -0.56500
H         14.92500       12.77100        1.35400
C         14.15400       15.23200        2.44300
C         14.61200       16.09700        1.44900
C         15.78100       16.83200        1.64700
C         16.49200       16.70200        2.84000
C         16.03500       15.83800        3.83500
C         14.86600       15.10300        3.63600
H         14.11700       16.18700        0.61900
H         16.09900       17.43300        0.95600
H         17.30500       17.21300        2.97800
H         16.53000       15.74700        4.66400
H         14.54800       14.50100        4.32800
C          8.67200       13.42900        2.46400
C          7.35100       13.85600        2.59800
C          6.45900       13.70800        1.53600
C          6.88900       13.13300        0.33900
C          8.21000       12.70500        0.20500
C          9.10200       12.85300        1.26800
H          7.05300       14.25600        3.43000
H          5.54100       14.00500        1.62800
H          6.26900       13.03000       -0.40000
H          8.50900       12.30500       -0.62600
H         10.02100       12.55600        1.17500
C          8.91100       12.76500        5.21900
C          8.09600       11.66900        4.93600
C          7.53800       10.92700        5.97800
C          7.79500       11.28200        7.30200
C          8.61000       12.37800        7.58500
C          9.16800       13.12000        6.54300
H          7.91700       11.42200        4.01500
H          6.97100       10.16500        5.78100
H          7.40700       10.76600        8.02600
H          8.78900       12.62400        8.50600
H          9.73500       13.88200        6.74000
