105
C:\Users\Javier\OneDrive - Universitat de Barcelona\Tesi\4 - Contribucions\Treballs\3-PhD\chapter_1\cif\pc4p\YEGRAG.pc4p.pdb
C         14.41600        1.13900       14.82400
H         14.55300        1.97000       14.31800
C         15.79500        0.58100       15.15100
H         15.65300       -0.24700       15.66100
C         15.78200       -0.70100       13.00600
H         16.26900       -0.82300       12.17500
H         15.69100       -1.57400       13.42200
C         14.48800       -0.19700       12.70700
H         13.99600       -0.88000       12.21800
H         14.57800        0.57100       12.12800
C         16.60800        0.21000       13.93800
H         17.41600       -0.25000       14.21400
H         16.86600        1.01500       13.46300
C         13.68600        0.19700       13.93600
H         12.85600        0.60900       13.64900
H         13.46300       -0.60200       14.43800
C         13.59100        5.27900       18.79300
H         13.96200        5.66300       17.98300
H         12.71600        5.67000       18.94000
C         14.51300        5.59800       19.99100
H         14.10200        6.33500       20.46800
H         14.47300        4.83000       20.58300
C         15.83700        5.91300       19.84900
H         16.27400        5.66400       20.67800
H         15.88800        6.88000       19.78800
C         16.68500        5.36200       18.72700
H         17.58000        5.72200       18.82300
H         16.32800        5.69500       17.88900
C         11.86900        3.33900       17.61600
C         11.66600        4.14900       16.51100
H         12.28800        4.81300       16.32000
C         10.58200        4.00700       15.69700
H         10.48400        4.56200       14.95700
C          9.64100        3.05700       15.96100
H          8.89100        2.98300       15.41800
C          9.80200        2.21200       17.02900
H          9.17100        1.54800       17.19200
C         10.92700        2.34400       17.88000
H         11.03400        1.77400       18.60700
C         12.79000        2.97800       20.25100
C         11.79300        3.70400       20.86200
H         11.41000        4.41600       20.40300
C         11.34800        3.41600       22.12600
H         10.48600        3.65300       22.38500
C         11.74100        2.14700       22.68700
H         11.35600        1.86400       23.48500
C         12.65700        1.36500       22.08000
H         12.99100        0.60900       22.50700
C         13.09400        1.70400       20.80500
H         13.58800        1.09200       20.31100
C         18.38900        3.34300       17.66000
C         19.30400        2.32500       17.95600
H         19.14900        1.76700       18.68400
C         20.44500        2.13300       17.17100
H         21.05900        1.46600       17.38000
C         20.63900        2.94300       16.09400
H         21.39900        2.82900       15.57200
C         19.73900        3.92500       15.76300
H         19.88200        4.45900       15.01600
C         18.63000        4.11000       16.54200
H         18.02100        4.77400       16.31000
C         17.41200        3.08600       20.29200
C         16.61100        2.34600       21.14800
H         15.83500        1.95500       20.81700
C         16.94200        2.17700       22.49000
H         16.39500        1.68600       23.06000
C         18.12200        2.76700       22.95300
H         18.37100        2.65400       23.84300
C         18.90200        3.49600       22.13900
H         19.38800        4.10800       22.64100
C         18.46500        3.75500       20.86600
H         18.90000        4.41200       20.37100
N         13.78100        1.50200       16.06200
H         13.44900        0.76900       16.44200
H         13.10100        2.05000       15.89100
N         16.50800        1.53700       16.06600
H         16.90800        2.16600       15.57900
H         17.13700        1.10000       16.51900
P         13.43100        3.46700       18.59600
P         16.81700        3.51100       18.60500
Cl        15.11300        4.30200       15.86900
Cl        15.19800        0.32600       18.59200
Ru        15.13500        2.47300       17.46300
C         14.53800        0.54800       15.16900
H         14.71400       -0.27200       15.67000
C         15.86200        1.19400       14.82000
H         15.69300        2.00900       14.31100
C         15.89600       -0.08800       12.70200
H         16.42300       -0.67200       12.14200
H         15.72000        0.73400       12.21300
C         14.50700       -0.80000       13.08400
H         14.01800       -1.03400       12.28100
H         14.67600       -1.60900       13.59000
C         12.16300        2.79300       22.98600
H         11.96000        2.77200       23.89400
C         13.30300        2.16900       22.51400
H         13.79900        1.61500       23.06700
C         13.70500        2.39900       21.15400
H         14.56000        2.16800       20.87400
C         17.15000        1.72000       20.76800
H         16.69700        1.10600       20.23800
C         17.61700        1.38000       22.08400
H         17.27400        0.63000       22.52100
C         18.52700        2.11400       22.65600
H         18.94900        1.79000       23.41400
