91
C:\Users\Javier\OneDrive - Universitat de Barcelona\Tesi\4 - Contribucions\Treballs\3-PhD\chapter_1\cif\pc4p\YOBVIX.pc4p.pdb
Ru         8.75800        9.11400       12.99500
P          7.44100        7.67100       11.80200
P         10.49400        9.09700       11.51200
F          9.46600        4.99000       15.13900
F         11.55300        5.10000       14.59700
F         10.91400        5.76100       16.54000
F          6.69300       12.61600       10.34800
F          6.43600       13.94700       12.02100
F          8.39700       13.49500       11.28700
O          9.38700        7.35200       13.97500
O         11.35400        7.91600       14.92800
O          8.16600       10.94500       12.13500
O          6.43000       11.67100       13.38200
N          7.33500        9.25100       14.62600
N          9.85100       10.34800       14.39500
C         10.42800        7.16700       14.66500
C         10.52900        5.73400       15.22900
C          7.26500       11.74800       12.48100
C          7.19700       12.96900       11.53800
C          8.04200        9.69100       15.85400
C          8.96400       10.81600       15.48700
C          8.33300        6.24900       11.04800
C          9.22500        6.64400        9.85900
C         10.73500        6.60500       10.10200
C         11.29700        7.45900       11.25300
C          6.36900        8.30200       10.46100
C          6.21000        7.67400        9.22800
C          5.38500        8.23200        8.26200
C          4.68200        9.39400        8.52700
C          4.79100        9.99600        9.76100
C          5.64000        9.46600       10.71900
C          6.19300        6.76200       12.82500
C          4.82200        6.86800       12.62700
C          3.93100        6.12300       13.38600
C          4.38600        5.25400       14.35000
C          5.73900        5.15300       14.57800
C          6.63700        5.90800       13.82700
C         10.36300        9.76900        9.80700
C         11.50500        9.84800        9.00100
C         11.42200       10.35600        7.71600
C         10.20000       10.79000        7.21800
C          9.06500       10.71700        8.00600
C          9.14400       10.21300        9.29900
C         11.85500       10.16200       12.12200
C         12.96700        9.67000       12.79800
C         13.93600       10.53900       13.28000
C         13.80400       11.89900       13.12700
C         12.67400       12.40800       12.49500
C         11.71100       11.55000       11.98900
H          6.76600        9.85000       14.38100
H          6.91900        8.49400       14.75700
H         10.47900        9.86800       14.72900
H         10.21500       11.00100       14.02100
H          8.56100        8.93800       16.23600
H          7.38800        9.99500       16.53200
H          8.43900       11.60100       15.18700
H          9.50300       11.08300       16.27300
H          8.89600        5.82100       11.74200
H          7.67000        5.58000       10.74400
H          9.01800        6.03900        9.10300
H          8.98000        7.56100        9.57900
H         11.18500        6.88800        9.26700
H         10.99300        5.66500       10.27000
H         12.26100        7.60900       11.08500
H         11.21900        6.93900       12.09200
H          6.66500        6.86000        9.05000
H          5.30300        7.81300        7.41200
H          4.12500        9.77600        7.85900
H          4.28300       10.77500        9.95600
H          5.72800        9.89900       11.56100
H          4.49100        7.46000       11.96200
H          2.99700        6.21300       13.23700
H          3.77400        4.73000       14.85200
H          6.06200        4.56600       15.25200
H          7.56700        5.83700       14.00300
H         12.34200        9.55300        9.33800
H         12.20000       10.40700        7.17500
H         10.14400       11.13800        6.33600
H          8.23000       11.01200        7.66200
H          8.36300       10.17100        9.83900
H         13.06300        8.73400       12.93200
H         14.70100       10.18900       13.72100
H         14.47800       12.48600       13.45100
H         12.56300       13.34700       12.40900
H         10.94700       11.90400       11.55000
F          9.28600        5.49200       15.90200
F         10.38600        5.69700       16.50100
F         11.42100        5.59100       16.14700
F         11.78100        5.16000       15.04300
F         10.58100        4.90300       14.27600
F          9.75400        4.81800       14.61800
