81
C:\Users\Javier\OneDrive - Universitat de Barcelona\Tesi\4 - Contribucions\Treballs\3-PhD\chapter_1\cif\pc4p\YODYAS.pc4p.pdb
Pd        16.62400        2.04900        0.00000
P         15.66700        0.50900        1.44700
F         13.76700        3.49500       -0.00800
F         12.66000        5.34000        1.62200
F         14.09800        6.41700        3.65400
F         16.67400        5.63200        4.06400
F         17.79300        3.80700        2.46400
C         15.82300        3.54900        1.16600
C         14.53200        4.01100        0.98700
C         13.93200        4.95400        1.81500
C         14.65700        5.48600        2.86000
C         15.95400        5.09100        3.05100
C         16.51100        4.15200        2.20900
C         16.72500        0.14300        2.87900
C         16.26700       -0.69500        3.89500
C         17.06300       -0.96500        4.98900
C         18.33200       -0.38000        5.08700
C         18.79700        0.43600        4.08000
C         17.99500        0.69400        2.96100
C         14.11300        1.09700        2.19600
C         14.09600        1.84200        3.38000
C         12.90400        2.36400        3.85400
C         11.72800        2.14500        3.16800
C         11.72300        1.39800        2.01900
C         12.91100        0.88200        1.52300
C         15.14500       -1.14000        0.81100
C         16.22100       -2.20900        0.65100
H         15.40600       -1.08600        3.83500
H         16.74900       -1.53500        5.68200
H         18.87600       -0.55300        5.84600
H         19.66000        0.82400        4.14400
H         18.31800        1.25200        2.26300
H         14.90400        1.98900        3.85700
H         12.89600        2.87100        4.65700
H         10.91500        2.51500        3.49300
H         10.90700        1.23700        1.56000
H         12.91000        0.37800        0.71700
H         14.48800       -1.47900        1.40700
H         14.75800       -1.00400       -0.04600
H         16.90000       -2.06900        1.30200
H         15.83500       -3.06700        0.77700
P         17.58100        0.50900       -1.44700
F         19.48100        3.49500        0.00800
F         20.58800        5.34000       -1.62200
F         19.15000        6.41700       -3.65400
F         16.57400        5.63200       -4.06400
F         15.45500        3.80700       -2.46400
C         17.42500        3.54900       -1.16600
C         18.71600        4.01100       -0.98700
C         19.31600        4.95400       -1.81500
C         18.59100        5.48600       -2.86000
C         17.29400        5.09100       -3.05100
C         16.73700        4.15200       -2.20900
C         16.52300        0.14300       -2.87900
C         16.98100       -0.69500       -3.89500
C         16.18500       -0.96500       -4.98900
C         14.91600       -0.38000       -5.08700
C         14.45100        0.43600       -4.08000
C         15.25300        0.69400       -2.96100
C         19.13500        1.09700       -2.19600
C         19.15200        1.84200       -3.38000
C         20.34400        2.36400       -3.85400
C         21.52000        2.14500       -3.16800
C         21.52500        1.39800       -2.01900
C         20.33700        0.88200       -1.52300
C         18.10300       -1.14000       -0.81100
C         17.02700       -2.20900       -0.65100
H         17.84200       -1.08600       -3.83500
H         16.49900       -1.53500       -5.68200
H         14.37200       -0.55300       -5.84600
H         13.58800        0.82400       -4.14400
H         14.93000        1.25200       -2.26300
H         18.34400        1.98900       -3.85700
H         20.35200        2.87100       -4.65700
H         22.33300        2.51500       -3.49300
H         22.34100        1.23700       -1.56000
H         20.33800        0.37800       -0.71700
H         18.76000       -1.47900       -1.40700
H         18.49000       -1.00400        0.04600
H         16.34800       -2.06900       -1.30200
H         17.41300       -3.06700       -0.77700
