97
C:\Users\Javier\OneDrive - Universitat de Barcelona\Tesi\4 - Contribucions\Treballs\3-PhD\chapter_1\cif\pc4p\ZICTUA.pc4p.pdb
Ru         3.55700        2.92200        2.23600
P          4.88200        1.24600        3.15100
P          1.76400        2.50000        3.65500
N          2.42000        4.38500        1.23100
N          5.07900        3.52800        0.88800
N          4.20300        4.37300        3.50500
N          2.86400        1.71900        0.77100
C          4.42700        0.59700        4.80300
C          4.27300        1.69000        5.88500
C          2.82400        1.95600        6.30100
C          2.02300        2.91700        5.42700
C          4.91700       -0.23200        2.07900
C          5.33100       -0.08500        0.76000
C          5.24900       -1.13500       -0.13500
C          4.75000       -2.35600        0.27900
C          4.36700       -2.53300        1.58100
C          4.45400       -1.48600        2.48100
C          6.67900        1.56400        3.38500
C          7.24800        2.82300        3.25900
C          8.61700        2.99900        3.45500
C          9.41700        1.92500        3.78500
C          8.86800        0.66800        3.90400
C          7.50600        0.48200        3.70200
C          0.99400        0.84100        3.73900
C         -0.09300        0.64500        4.59700
C         -0.64100       -0.61400        4.72900
C         -0.13100       -1.67900        4.06200
C          0.92500       -1.50500        3.19100
C          1.46800       -0.23000        3.02200
C          0.32600        3.54100        3.22100
C         -0.54000        3.11200        2.23600
C         -1.60800        3.90200        1.83300
C         -1.80300        5.14200        2.43400
C         -0.92800        5.58400        3.36400
C          0.13700        4.79400        3.76700
C          1.78400        5.03300        0.56100
C          0.94200        5.83700       -0.30800
C          5.75500        3.99900        0.11000
C          6.61100        4.64000       -0.88100
C          4.50800        5.27600        4.10400
C          4.88100        6.42400        4.91200
C          2.53700        1.17000       -0.16300
C          2.15100        0.43100       -1.36000
H          3.57300        0.12000        4.72300
H          5.12300       -0.02900        5.09300
H          4.77400        1.40900        6.68000
H          4.65200        2.52400        5.53700
H          2.35300        1.09600        6.30500
H          2.83800        2.32400        7.20900
H          2.48300        3.78200        5.45500
H          1.13600        3.00400        5.83500
H          5.68600        0.77800        0.46000
H          5.54400       -1.01400       -1.06100
H          4.67100       -3.09500       -0.36000
H          4.02700       -3.40400        1.87700
H          4.18900       -1.62700        3.41500
H          6.68500        3.59200        3.03100
H          9.01200        3.88900        3.35800
H         10.37600        2.05700        3.93400
H          9.43800       -0.09600        4.13300
H          7.12100       -0.41600        3.78200
H         -0.46500        1.39800        5.10300
H         -1.41400       -0.74200        5.31700
H         -0.51300       -2.57300        4.19900
H          1.29000       -2.26700        2.69500
H          2.19900       -0.09800        2.38300
H         -0.39900        2.23800        1.81500
H         -2.21900        3.58900        1.13400
H         -2.57200        5.69400        2.18300
H         -1.04700        6.47300        3.75700
H          0.76000        5.12700        4.44600
H          0.50100        6.53500        0.21900
H          1.49400        6.25300       -1.00300
H          0.26600        5.26600       -0.72700
H          7.49100        4.81800       -0.48700
H          6.71300        4.04900       -1.65500
H          6.20300        5.48400       -1.16600
H          4.96900        6.15000        5.84900
H          5.73500        6.78500        4.59500
H          4.18800        7.11500        4.83900
H          1.71400        1.03800       -1.99200
H          2.95000        0.04600       -1.77600
H          1.53100       -0.28800       -1.11400
P          5.31000        4.20400        9.22100
F          4.68000        5.52900        9.82800
F          6.75400        4.87000        9.28200
F          5.55800        3.63900       10.66100
F          5.93600        2.89600        8.60900
F          3.87900        3.54000        9.19500
F          5.10300        4.76500        7.75900
P         -2.28800        2.02400        8.00600
F         -2.01600        3.09500        9.08100
F         -3.79600        2.12200        8.24900
F         -2.12700        1.02900        9.09800
F         -2.54400        0.83000        7.02800
F         -0.79500        2.04400        7.65500
F         -2.41900        2.97100        6.82800
