85
C:\Users\Javier\OneDrive - Universitat de Barcelona\Tesi\4 - Contribucions\Treballs\3-PhD\chapter_1\cif\pc4p\ZOGLIS.pc4p.pdb
Ru         4.10800        2.27500        5.00600
Cl         5.46600        1.98500        7.01200
Cl         5.56000        0.63600        3.74600
P          5.31800        4.02200        4.17500
P          2.71800        3.64100        6.18400
N          2.92200        2.03700        3.25600
H          3.26200        2.19900        2.46300
N          3.18800        0.37600        5.61900
H          3.69000       -0.19000        6.06900
C          7.16200        3.88500        4.09500
C          7.85600        2.84700        4.69400
H          7.38100        2.16400        5.15300
C          9.24700        2.80000        4.62600
H          9.71600        2.08100        5.03500
C          9.94900        3.79200        3.96700
H         10.89700        3.75500        3.92600
C          9.26800        4.83700        3.36800
H          9.75100        5.52700        2.92700
C          7.88700        4.87600        3.41000
H          7.42300        5.57800        2.97300
C          4.96900        4.36000        2.40400
C          5.31900        3.37500        1.47700
H          5.78400        2.59900        1.76700
C          4.99600        3.52200        0.13900
H          5.23900        2.84300       -0.48000
C          4.33000        4.63500       -0.30600
H          4.11000        4.72400       -1.22700
C          3.98300        5.61700        0.58400
H          3.52400        6.39000        0.27800
C          4.30100        5.48700        1.93700
H          4.05700        6.17500        2.54600
C          5.14800        5.69000        4.91900
H          5.74900        6.31500        4.44100
H          4.22000        6.00600        4.78300
C          5.47400        5.74600        6.42200
H          5.93400        4.90900        6.68300
H          6.09400        6.49900        6.59100
C          4.23100        5.91900        7.29000
H          4.50900        6.30700        8.15700
H          3.63400        6.57700        6.85100
C          3.42900        4.65300        7.56700
H          2.67600        4.90900        8.15400
H          4.01100        4.05100        8.09500
C          1.49800        2.70700        7.20800
C          2.02100        1.87500        8.21500
H          2.95900        1.85200        8.36400
C          1.18500        1.09000        8.99000
H          1.54900        0.53300        9.66900
C         -0.18200        1.11900        8.77700
H         -0.75500        0.57400        9.30200
C         -0.71700        1.94300        7.79100
H         -1.65600        1.97000        7.65000
C          0.12400        2.72900        7.01300
H         -0.24500        3.28900        6.34000
C          1.62800        4.87800        5.33000
C          1.65300        4.99800        3.94700
H          2.24100        4.43900        3.45200
C          0.84900        5.90500        3.25300
H          0.90500        5.97100        2.30700
C         -0.01900        6.69500        3.95000
H         -0.59600        7.29200        3.48700
C         -0.05500        6.62500        5.31700
H         -0.64000        7.19700        5.80000
C          0.76400        5.71500        6.01900
H          0.72300        5.67500        6.96800
C          1.50700        1.58800        3.39400
H          1.05900        1.68000        2.51500
H          1.04300        2.19000        4.03000
C          1.35000        0.15100        3.87600
C          1.79300       -0.02500        5.33900
H          1.19000        0.50400        5.91600
H          1.68400       -0.97700        5.58800
C          2.07600       -0.81500        2.93600
H          3.03600       -0.62300        2.95000
H          1.73200       -0.70400        2.02500
H          1.92200       -1.73600        3.23400
C         -0.15400       -0.16100        3.84800
H         -0.62700        0.45000        4.45100
H         -0.30100       -1.08400        4.13600
H         -0.49300       -0.04500        2.93500
C          3.99700       -0.32000       -1.55000
H          4.72300       -0.75600       -2.08200
Cl         3.50400        1.08300       -2.39000
Cl         2.73700       -1.48000       -1.33000
Cl         4.63700        0.01700        0.05400
