109
C:\Users\Javier\OneDrive - Universitat de Barcelona\Tesi\4 - Contribucions\Treballs\3-PhD\chapter_1\cif\pc4p\ZORZUD.pc4p.pdb
Pd        16.41200        4.50500       16.91300
Fe        13.63800        3.13500       17.23700
P         16.84700        6.73600       16.88700
P         18.45000        3.54900       16.59200
C         14.37800        5.00300       17.13700
C         13.66000        4.78500       18.36800
H         14.05600        4.85000       19.28500
C         12.31400        4.46000       18.08300
H         11.61000        4.23600       18.75700
C         12.14900        4.45400       16.68700
H         11.31100        4.22800       16.19200
C         13.42700        4.81900       16.10000
H         13.61900        4.88400       15.12000
C         15.56200        2.57700       17.04000
C         15.01500        2.03800       18.24200
H         15.34500        2.23600       19.16500
C         13.89100        1.20400       17.92700
H         13.30400        0.73400       18.58700
C         13.73000        1.20300       16.53200
H         13.01700        0.72600       16.02000
C         14.76100        2.02800       15.97900
H         14.88900        2.21500       15.00500
C         18.58700        7.29600       16.73700
H         18.89000        7.18200       15.80200
H         18.64500        8.25800       16.96500
C         19.50900        6.48100       17.68400
H         20.02600        7.10900       18.24900
H         18.94800        5.92700       18.28300
C         20.47000        5.58300       16.94100
H         20.98500        5.06000       17.60500
H         21.11300        6.15400       16.45000
C         19.83300        4.59900       15.93700
H         20.54400        3.99900       15.59800
H         19.49200        5.11800       15.16600
C         16.23800        7.55600       18.40200
H         16.45300        8.52300       18.35900
H         15.25200        7.46600       18.44600
C         16.86300        6.95300       19.68400
H         16.80700        5.96600       19.62900
H         17.82200        7.19700       19.71500
C         16.21700        7.39700       20.95500
H         15.28500        7.06300       20.98100
H         16.18600        8.38600       20.97600
C         16.97400        6.88700       22.18700
H         17.87800        7.26400       22.19400
H         17.02800        5.90900       22.15500
H         16.49800        7.16300       23.00000
C         15.96800        7.61800       15.56300
H         14.99700        7.58600       15.75800
H         16.24400        8.56900       15.58400
C         16.19100        7.08800       14.17500
H         15.96200        6.12500       14.16200
H         17.15400        7.16900       13.95700
C         15.37600        7.80300       13.08400
H         15.56600        8.77400       13.13200
H         15.68300        7.48300       12.19900
C         13.93000        7.60200       13.18100
H         13.61100        7.92900       14.04700
H         13.72800        6.64600       13.09800
H         13.48300        8.09400       12.46100
C         18.40100        2.48300       15.11100
H         19.31500        2.14800       14.92700
H         17.82400        1.70000       15.29900
C         17.87800        3.19100       13.86700
H         17.05300        3.68000       14.11500
H         18.54800        3.86400       13.59000
C         17.56800        2.32600       12.68200
H         16.93500        1.61400       12.94900
H         18.40100        1.89300       12.36300
C         16.96800        3.14100       11.56800
H         17.62800        3.79000       11.24400
H         16.17800        3.61600       11.90100
H         16.70600        2.54800       10.83300
C         18.96400        2.37200       17.87900
H         18.52300        1.50800       17.68100
H         19.93800        2.22900       17.77600
C         18.70400        2.68600       19.35600
H         19.36800        3.36800       19.63800
H         17.81000        3.11300       19.41800
C         18.74600        1.55900       20.36000
H         17.96400        0.97200       20.20600
H         19.56200        1.02200       20.19400
C         18.74400        1.97700       21.75500
H         17.90800        2.44800       21.95400
H         19.50100        2.57700       21.91800
H         18.82000        1.18900       22.33300
H         18.60600        8.26800       16.54900
H         19.05900        7.14000       17.59400
C         19.35000        6.49600       15.54400
H         18.67100        6.01500       15.00700
H         19.77900        7.16200       14.94900
C         20.42000        5.48400       15.98400
H         20.70100        4.96200       15.19100
H         21.21200        5.98700       16.30300
C         20.01200        4.52800       17.05200
H         19.84700        5.02900       17.89000
H         20.75400        3.89400       17.22000
H         18.33700        1.60700       17.91100
H         19.87000        2.02500       17.68100
C         18.96600        3.10900       19.22800
H         19.46700        3.95900       19.12800
H         18.03200        3.34100       19.46900
C         19.58300        2.30400       20.36200
H         20.53200        2.12900       20.14600
H         19.56000        2.85000       21.18900
C         18.92100        1.03300       20.62700
H         18.94200        0.47900       19.82000
H         17.99100        1.19600       20.88800
H         19.38700        0.56900       21.35300
