143
C:\Users\Javier\OneDrive - Universitat de Barcelona\Tesi\4 - Contribucions\Treballs\3-PhD\chapter_1\cif\pc2p\ABUYIF.pc2p.pdb
Pd        10.70300        5.91700       11.84900
Cl        12.94600        5.37200       12.35200
Cl        11.35700        7.18400        9.96700
P          8.51500        6.35000       11.52700
P         10.02200        4.62200       13.54100
C          7.63600        5.81400       13.05300
H          7.78100        6.47100       13.78000
H          6.66300        5.74200       12.88100
C          8.21600        4.46300       13.44800
H          7.97300        3.78400       12.77000
H          7.84800        4.18000       14.32200
C          7.93900        8.03200       11.16000
C          8.08700        8.54700        9.87400
H          8.52900        8.04300        9.20000
C          7.59000        9.80200        9.57500
H          7.70900       10.17000        8.70700
C          6.90500       10.54200       10.56200
H          6.53800       11.39000       10.34700
C          6.75000       10.03400       11.82800
H          6.32000       10.54700       12.50200
C          7.24800        8.77100       12.13700
H          7.12000        8.41100       13.00500
C          7.85600        5.34100       10.16700
C          8.69800        4.57900        9.36200
H          9.63300        4.55900        9.53200
C          8.15600        3.82600        8.30900
H          8.73300        3.31600        7.75200
C          6.81300        3.81500        8.07400
H          6.46500        3.30400        7.35200
C          5.95500        4.56800        8.88400
H          5.01800        4.55500        8.72700
C          6.47100        5.32200        9.91900
H          5.89400        5.84500       10.46400
C         10.33600        5.33500       15.17500
C          9.83200        4.76100       16.34500
H          9.36000        3.93800       16.29700
C         10.00700        5.37600       17.57000
H          9.65800        4.97100       18.35500
C         10.72200        6.54600       17.67100
H         10.83300        6.96200       18.51700
C         11.23000        7.12400       16.54500
H         11.72500        7.93000       16.61800
C         11.03600        6.55600       15.30400
H         11.39100        6.97700       14.53200
C         10.63500        2.91000       13.54500
C         10.31800        2.11500       12.43100
H          9.80500        2.48300       11.72200
C         10.76200        0.80600       12.36000
H         10.50500        0.26500       11.62300
C         11.56400        0.29400       13.36700
H         11.89000       -0.59600       13.30700
C         11.87500        1.07800       14.44600
H         12.41900        0.71200       15.13200
C         11.43700        2.39100       14.55500
H         11.68600        2.92300       15.30200
C         11.15400        7.90500        6.59800
H         11.63100        7.52000        7.38800
Cl        12.14900        7.63300        5.15400
Cl        10.91900        9.61400        6.85900
Cl         9.60500        7.06800        6.40900
C         12.93900        3.96800        8.98500
H         12.82700        4.73700        9.61300
Cl        12.12800        4.35000        7.49200
Cl        14.68900        3.72000        8.70200
Cl        12.28100        2.53600        9.73800
C         14.67600        8.19700        9.29400
H         14.05300        7.75900        9.94500
Cl        16.35700        7.99000        9.90400
Cl        14.52600        7.40000        7.77300
Cl        14.29100        9.86100        9.22000
Pd        10.16300       15.15800       11.81400
Cl        12.43200       14.90500       12.43400
Cl        10.66800       16.51700        9.94300
P          7.97300       15.43100       11.44400
P          9.54400       13.74300       13.43300
C          7.07200       14.79500       12.91700
H          7.15500       15.43400       13.66900
H          6.11100       14.67400       12.71200
C          7.72700       13.44800       13.29600
H          7.53800       12.77400       12.59500
H          7.36600       13.11700       14.15700
C          7.40100       17.13400       11.15700
C          7.24300       17.62600        9.86900
H          7.41600       17.05900        9.12400
C          6.83400       18.92900        9.65600
H          6.73500       19.26300        8.77200
C          6.58000       19.75300       10.75000
H          6.24500       20.63100       10.60800
C          6.78100       19.29100       12.03100
H          6.65000       19.87100       12.77200
C          7.20300       17.98800       12.21800
H          7.34800       17.67000       13.10200
C          7.36700       14.46200       10.04100
C          8.24500       13.90600        9.09900
H          9.17900       14.06600        9.17200
C          7.75800       13.13900        8.04600
H          8.37200       12.74700        7.43600
C          6.41400       12.92700        7.88100
H          6.09300       12.43600        7.13400
C          5.52800       13.46400        8.81300
H          4.59600       13.29900        8.72700
C          5.98700       14.21700        9.89100
H          5.37000       14.57600       10.51900
C          9.74600       14.39600       15.11700
C          9.46400       13.63200       16.24300
H          9.24100       12.71500       16.13500
C          9.53100       14.18400       17.50700
H          9.33000       13.64800       18.26600
C          9.86300       15.52900       17.67400
H          9.91000       15.91900       18.53700
C         10.14200       16.27600       16.54500
H         10.34900       17.19900       16.64600
C         10.08800       15.73200       15.28100
H         10.31900       16.26000       14.52400
C         10.34400       12.11900       13.32700
C         10.11600       11.38700       12.15000
H          9.53100       11.73600       11.48600
C         10.72700       10.15500       11.92400
H         10.56900        9.66800       11.12700
C         11.57700        9.66000       12.89400
H         11.98900        8.81600       12.76000
C         11.81000       10.37600       14.05900
H         12.41500       10.02300       14.70200
C         11.20900       11.59100       14.28400
H         11.36900       12.06200       15.09100
C         10.84400       17.85600        6.71200
H         11.16300       17.36200        7.52200
Cl         9.45300       18.90800        7.13200
Cl        12.09400       18.92500        6.15500
Cl        10.33200       16.73400        5.50500
Cl        12.03500       17.19500        5.55200
Cl        11.68100       19.32800        7.04100
Cl         9.39900       17.03300        6.27100
C         12.59700       13.79200        8.84600
H         12.46200       14.54500        9.49100
Cl        11.90200       14.25000        7.31400
Cl        14.32000       13.49100        8.69200
Cl        11.80700       12.35500        9.48100
C         15.25700       18.19800        8.76500
H         15.02800       19.16600        8.65600
Cl        16.71200       18.07600        9.79700
Cl        15.57700       17.52600        7.24100
Cl        13.93300       17.40000        9.58900
