178
C:\Users\Javier\OneDrive - Universitat de Barcelona\Tesi\4 - Contribucions\Treballs\3-PhD\chapter_1\cif\pc2p\ACUKEQ.pc2p.pdb
C         18.56100       10.76700       12.97800
C         19.05200       10.78500       14.45700
C         17.73600        9.50000       12.89100
C         19.25800        9.73100       12.73800
C         19.72800        9.73100       14.16800
C         17.73600        9.50000       12.89100
C         18.51600        8.53200       13.83500
Rh        18.09900       13.01800       13.94700
P         17.54100       14.64100       12.59200
C         18.14700       16.27800       13.18100
C         18.10400       14.56400       10.84900
C         19.61800       14.47600       10.60200
C         20.20900       13.13900       11.03100
C         19.89700       14.72800        9.12500
C         15.72900       14.88500       12.49700
C         14.85400       13.63200       12.62100
C         14.92900       12.79600       11.39700
C         13.45000       13.98700       12.96700
B         18.09900        3.89900       13.94700
C         18.40300        4.89700       15.20800
C         19.68200        5.39500       15.48100
C         19.92200        6.29200       16.52600
C         18.89400        6.74800       17.32000
C         17.62500        6.30700       17.05400
C         17.37500        5.40200       16.01900
C         21.30200        6.76400       16.79100
C         16.51400        6.85700       17.86000
C         16.84900        2.88400       14.27200
C         16.65800        2.37200       15.56100
C         15.65800        1.45200       15.85500
C         14.80500        0.99100       14.86000
C         14.99300        1.45900       13.56900
C         16.00200        2.37900       13.28300
C         15.52600        0.97000       17.27600
C         14.10100        1.00300       12.45700
F         21.71800        7.65800       15.92200
F         22.19900        5.79400       16.75700
F         21.44300        7.33900       17.99000
F         16.12000        8.07300       17.45400
F         15.42200        6.10400       17.83400
F         16.82100        6.99600       19.15400
F         15.19000        1.96700       18.10100
F         16.71200        0.51700       17.76300
F         14.69500       -0.04000       17.41700
F         13.29900       -0.00400       12.80900
F         13.35100        1.97800       11.98500
F         14.79400        0.53000       11.41000
H         19.30700       10.73400       12.36300
H         17.99900       11.53800       12.77500
H         20.02000       10.78300       14.50500
H         18.71000       11.55400       14.94700
H         18.90600        9.17300       15.82000
H         19.67400        9.01300       12.24000
H         16.75500       10.57900       15.58700
H         20.36800        9.01300       14.32300
H         16.06400       10.58600       13.50300
H         17.58500        9.16800       11.97600
H         18.04800        7.69700       14.00300
H         19.41400        8.34400       13.53400
H         19.06900       16.41200       12.91500
H         17.60300       16.97900       12.80500
H         17.70600       13.76900       10.45500
H         17.77400       15.36900       10.40400
H         20.05800       15.17900       11.14300
H         21.13200       13.07200       10.74800
H         19.71600       12.41800       10.61300
H         20.15500       13.03500       11.98700
H         20.84200       14.70300        8.94800
H         19.47000       14.04400        8.61400
H         19.54800       15.58700        8.86800
H         15.47500       15.46500       13.23700
H         15.52800       15.30900       11.64700
H         15.15000       13.07600       13.38200
H         14.14000       12.22800       11.35300
H         15.72200       12.24500       11.43800
H         14.94800       13.39100       10.62600
H         12.91300       13.18000       12.93900
H         13.42600       14.36000       13.85800
H         13.10700       14.64400       12.33800
H         20.39800        5.12600       14.94900
H         19.05300        7.33100       18.01400
H         16.50000        5.12100       15.87900
H         17.21800        2.66200       16.24700
H         14.13200        0.38400       15.05200
H         16.10800        2.65500       12.40200
C         14.93500       13.66000       12.02400
C         15.77800       12.75200       11.20400
C         13.69400       14.06300       11.30600
F         22.06600        6.81000       15.68900
F         21.96400        5.99500       17.64800
F         21.34900        7.99200       17.30500
F         15.59600        7.48900       17.13100
F         15.84300        5.91900       18.54600
F         16.91400        7.73900       18.76500
H         14.66000       13.15900       12.82900
H         15.40800       11.86200       11.22500
H         16.67200       12.73600       11.55700
H         15.80100       13.06900       10.29500
H         13.10800       13.30500       11.23800
H         13.91900       14.37300       10.42700
H         13.25200       14.76700       11.79400
H         15.40800       15.12200       13.38400
H         15.55500       15.61300       11.87900
C         17.63700       10.76700       14.91600
C         17.14700       10.78500       13.43700
C         18.46200        9.50000       15.00300
C         16.94000        9.73100       15.15600
C         16.47000        9.73100       13.72600
C         17.68200        8.53200       14.05900
P         18.65700       14.64100       15.30200
C         18.05100       16.27800       14.71300
C         18.09400       14.56400       17.04500
C         16.58000       14.47600       17.29200
C         15.98900       13.13900       16.86300
C         16.30100       14.72800       18.76900
C         20.46900       14.88500       15.39700
C         21.34400       13.63200       15.27300
C         21.26900       12.79600       16.49600
C         22.74800       13.98700       14.92700
C         17.79500        4.89700       12.68600
C         16.51600        5.39500       12.41300
C         16.27600        6.29200       11.36800
C         17.30400        6.74800       10.57400
C         18.57400        6.30700       10.84000
C         18.82300        5.40200       11.87500
C         14.89600        6.76400       11.10300
C         19.68400        6.85700       10.03400
C         19.34900        2.88400       13.62200
C         19.54000        2.37200       12.33300
C         20.54000        1.45200       12.03900
C         21.39300        0.99100       13.03400
C         21.20500        1.45900       14.32400
C         20.19600        2.37900       14.61100
C         20.67200        0.97000       10.61800
C         22.09700        1.00300       15.43700
F         14.48000        7.65800       11.97200
F         14.00000        5.79400       11.13700
F         14.75500        7.33900        9.90400
F         20.07900        8.07300       10.44000
F         20.77600        6.10400       10.06000
F         19.37800        6.99600        8.74000
F         21.00800        1.96700        9.79300
F         19.48600        0.51700       10.13100
F         21.50300       -0.04000       10.47700
F         22.89900       -0.00400       15.08500
F         22.84700        1.97800       15.90900
F         21.40400        0.53000       16.48300
H         18.19900       11.53800       15.11900
H         17.48800       11.55400       12.94700
H         16.52400        9.01300       15.65400
H         15.83000        9.01300       13.57100
H         16.78400        8.34400       14.36000
H         17.13000       16.41200       14.97900
H         18.59500       16.97900       15.08900
H         18.49200       13.76900       17.43900
H         18.42400       15.36900       17.49000
H         16.14000       15.17900       16.75100
H         15.06600       13.07200       17.14500
H         16.48300       12.41800       17.28100
H         16.04300       13.03500       15.90700
H         15.35600       14.70300       18.94600
H         16.72800       14.04400       19.28000
H         16.65000       15.58700       19.02600
H         20.72300       15.46500       14.65700
H         20.67000       15.30900       16.24700
H         21.04900       13.07600       14.51200
H         22.05800       12.22800       16.54100
H         20.47600       12.24500       16.45600
H         21.25000       13.39100       17.26800
H         23.28500       13.18000       14.95500
H         22.77200       14.36000       14.03600
H         23.09100       14.64400       15.55600
H         15.80000        5.12600       12.94500
H         17.14500        7.33100        9.88000
H         19.69800        5.12100       12.01500
H         18.98100        2.66200       11.64700
H         22.06700        0.38400       12.84200
H         20.09000        2.65500       15.49200
