182
C:\Users\Javier\OneDrive - Universitat de Barcelona\Tesi\4 - Contribucions\Treballs\3-PhD\chapter_1\cif\pc2p\ACUKAM.pc2p.pdb
C         17.43500       10.89900       13.13000
C         18.60400       10.99700       12.59600
C         17.39800       10.10600       14.36000
C         17.82000        8.63400       14.57200
C         17.69900        8.65300       13.85500
C         17.39800       10.10600       14.36000
C         17.98400       10.36800       12.95400
Rh        18.43000       12.72300       13.89700
P         17.84400       14.37900       12.52900
C         18.43300       15.99400       13.13900
C         18.46800       14.31800       10.77900
C         19.92300       14.26900       10.56700
C         20.60300       12.99700       10.99000
C         20.22200       14.54800        9.07900
C         16.02700       14.67700       12.26700
C         15.14900       13.49500       12.57400
C         15.12400       12.66400       11.31800
C         13.78700       14.06300       12.90200
B         18.43000        3.92100       13.89700
C         18.73900        4.92000       15.15300
C         20.00400        5.44800       15.40400
C         20.26300        6.35800       16.41500
C         19.24000        6.78900       17.24400
C         17.97200        6.29300       17.04000
C         17.72400        5.39000       16.01100
C         21.62200        6.94700       16.63600
C         16.83700        6.79100       17.87600
C         17.18600        2.90500       14.22900
C         17.02300        2.35800       15.50400
C         16.05000        1.42000       15.78900
C         15.16800        0.96900       14.81100
C         15.33100        1.47600       13.52500
C         16.32000        2.41400       13.24300
C         15.92200        0.91900       17.20300
C         14.42800        1.02900       12.41500
F         22.46200        6.72500       15.61100
F         22.22100        6.47100       17.69600
F         21.59500        8.26700       16.79700
F         16.26200        7.88800       17.37300
F         15.85900        5.89900       18.00700
F         17.20000        7.10900       19.10200
F         15.53600        1.86500       18.02600
F         17.11900        0.53400       17.70500
F         15.14000       -0.12800       17.32900
F         13.50700        0.15400       12.81100
F         13.78800        2.03100       11.85100
F         15.11200        0.43100       11.42200
H         16.63800       10.95900       12.56700
H         18.72700       11.08800       11.62700
H         16.43400       10.27400       14.43100
H         17.21500        8.01400       14.13100
H         17.87500        8.41200       15.51800
H         17.68200        8.03100       14.60100
H         17.02500        8.39100       13.20600
H         16.66100       10.24400       14.99200
H         17.82600       11.27000       12.63900
H         17.66600        9.73400       12.29100
H         19.34800       16.12200       12.84700
H         17.87000       16.70400       12.80400
H         18.14500       15.12100       10.32100
H         18.09100       13.51900       10.36400
H         20.30200       15.00200       11.11000
H         21.55000       13.09800       10.89200
H         20.39700       12.80800       11.90900
H         20.30700       12.26000       10.44000
H         21.16800       14.59000        8.94200
H         19.82900       15.38700        8.81600
H         19.86200       13.85000        8.52500
H         15.73900       15.42900       12.83200
H         15.90600       14.89200       11.32900
H         15.50700       12.98300       13.33200
H         14.24900       12.27200       11.21400
H         15.79400       11.97700       11.37900
H         15.31200       13.24300       10.57300
H         13.16400       13.34100       13.02800
H         13.86800       14.57800       13.71700
H         13.48200       14.63600       12.18900
H         20.70000        5.17700       14.85100
H         19.40600        7.38700       17.92400
H         16.85200        5.08100       15.89800
H         17.58700        2.63900       16.18600
H         14.50300        0.36200       15.00700
H         16.40600        2.71400       12.37200
C         16.03200       14.76000       12.63300
C         15.13100       13.64700       12.16300
C         13.91500       14.32100       11.57400
C         14.79200       12.84900       13.38900
F         15.89100        7.37600       17.16600
F         16.22300        5.81100       18.56300
F         17.21200        7.68200       18.78200
F         21.88600        7.94000       15.82400
F         22.59500        6.07500       16.46300
F         21.78600        7.43600       17.87700
H         15.79500       14.95300       13.55800
H         15.85800       15.54400       12.07000
H         15.60200       13.10900       11.49000
H         13.23700       13.65600       11.42300
H         13.58400       14.99700       12.17600
H         14.16600       14.72300       10.73400
H         13.93200       12.40800       13.23900
H         15.49800       12.18500       13.53600
H         14.73600       13.46300       14.14400
C         19.42500       10.89900       14.66400
C         18.25500       10.99700       15.19800
C         19.46100       10.10600       13.43400
C         19.04000        8.63400       13.22300
C         19.16100        8.65300       13.94000
C         18.87500       10.36800       14.84000
P         19.01500       14.37900       15.26500
C         18.42600       15.99400       14.65500
C         18.39200       14.31800       17.01600
C         16.93600       14.26900       17.22700
C         16.25700       12.99700       16.80400
C         16.63700       14.54800       18.71500
C         20.83300       14.67700       15.52800
C         21.71000       13.49500       15.22000
C         21.73500       12.66400       16.47600
C         23.07300       14.06300       14.89200
C         18.12100        4.92000       12.64100
C         16.85500        5.44800       12.39100
C         16.59600        6.35800       11.37900
C         17.62000        6.78900       10.55100
C         18.88800        6.29300       10.75500
C         19.13600        5.39000       11.78300
C         15.23800        6.94700       11.15800
C         20.02300        6.79100        9.91900
C         19.67300        2.90500       13.56500
C         19.83600        2.35800       12.29100
C         20.81000        1.42000       12.00500
C         21.69100        0.96900       12.98400
C         21.52800        1.47600       14.27000
C         20.54000        2.41400       14.55100
C         20.93700        0.91900       10.59100
C         22.43100        1.02900       15.37900
F         14.39700        6.72500       12.18300
F         14.63900        6.47100       10.09900
F         15.26500        8.26700       10.99700
F         20.59700        7.88800       10.42100
F         21.00100        5.89900        9.78700
F         19.66000        7.10900        8.69200
F         21.32400        1.86500        9.76900
F         19.74100        0.53400       10.08900
F         21.72000       -0.12800       10.46500
F         23.35200        0.15400       14.98300
F         23.07200        2.03100       15.94300
F         21.74700        0.43100       16.37300
H         20.22100       10.95900       15.22800
H         18.13300       11.08800       16.16700
H         20.42500       10.27400       13.36300
H         19.64400        8.01400       13.66400
H         18.98400        8.41200       12.27600
H         19.17700        8.03100       13.19300
H         19.83400        8.39100       14.58800
H         20.19900       10.24400       12.80200
H         19.03400       11.27000       15.15500
H         19.19400        9.73400       15.50400
H         17.51100       16.12200       14.94800
H         18.98900       16.70400       14.99000
H         18.71400       15.12100       17.47300
H         18.76800       13.51900       17.43100
H         16.55700       15.00200       16.68400
H         15.30900       13.09800       16.90300
H         16.46300       12.80800       15.88500
H         16.55200       12.26000       17.35500
H         15.69100       14.59000       18.85200
H         17.03000       15.38700       18.97800
H         16.99800       13.85000       19.26900
H         21.12100       15.42900       14.96300
H         20.95400       14.89200       16.46500
H         21.35200       12.98300       14.46200
H         22.61000       12.27200       16.58000
H         21.06500       11.97700       16.41500
H         21.54800       13.24300       17.22100
H         23.69600       13.34100       14.76600
H         22.99100       14.57800       14.07700
H         23.37700       14.63600       15.60600
H         16.15900        5.17700       12.94300
H         17.45400        7.38700        9.87100
H         20.00700        5.08100       11.89600
H         19.27300        2.63900       11.60900
H         22.35600        0.36200       12.78700
H         20.45300        2.71400       15.42200
