84
C:\Users\Javier\OneDrive - Universitat de Barcelona\Tesi\4 - Contribucions\Treballs\3-PhD\chapter_1\cif\pc2p\ADUXEF.pc2p.pdb
Ru         1.28600        7.86500       12.52500
Cl         0.68200        6.98600       10.32000
P         -0.94800        7.58700       12.93900
C         -1.62500        7.91600       14.61100
C         -2.96300        7.66100       14.93700
H         -3.56000        7.34100       14.27100
C         -3.42100        7.87600       16.23300
H         -4.32000        7.66500       16.45600
C         -2.57500        8.39500       17.20300
H         -2.90100        8.56500       18.07900
C         -1.25400        8.66600       16.88600
H         -0.67200        9.03300       17.54200
C         -0.77900        8.39800       15.60200
H          0.13700        8.54800       15.40200
C         -2.13700        8.45600       11.85900
C         -2.65600        7.85900       10.70400
H         -2.45300        6.95300       10.50600
C         -3.47000        8.59400        9.84500
H         -3.83200        8.18100        9.06900
C         -3.75600        9.92200       10.11600
H         -4.30500       10.42000        9.52200
C         -3.24000       10.52600       11.25600
H         -3.43300       11.43700       11.44000
C         -2.44200        9.79400       12.12700
H         -2.10100       10.20700       12.91200
C         -1.33100        5.79600       12.74700
H         -2.25500        5.60800       13.04800
H         -1.24600        5.52600       11.79800
C         -0.32400        5.02800       13.61000
H         -0.32300        4.07200       13.35200
H         -0.58300        5.09100       14.56400
P          1.37500        5.74800       13.37000
C          2.15700        5.53200       15.01200
C          1.45600        5.79100       16.19900
H          0.53600        6.02200       16.16300
C          2.10100        5.71000       17.42700
H          1.61200        5.86500       18.22700
C          3.44600        5.40800       17.49400
H          3.88100        5.35600       18.33700
C          4.16200        5.17900       16.32900
H          5.09300        4.99300       16.37200
C          3.51700        5.22100       15.09800
H          4.00700        5.03500       14.30600
C          2.26700        4.44200       12.43400
C          2.20800        3.10000       12.83900
H          1.65600        2.85300       13.57200
C          2.94800        2.13100       12.17800
H          2.90100        1.22500       12.45800
C          3.75700        2.48600       11.10900
H          4.26400        1.82200       10.65700
C          3.82600        3.80600       10.69700
H          4.38300        4.04600        9.96600
C          3.07900        4.78400       11.35300
H          3.12400        5.68700       11.06300
C          1.83300        9.89100       11.82200
C          1.65000        9.94800       13.24400
C          2.60400        9.06300       13.85700
C          3.42100        8.50800       12.80400
C          2.94900        9.00800       11.57000
C          1.12000       10.71200       10.79700
H          0.22200       10.93200       11.12100
H          1.05100       10.20400        9.96200
H          1.62100       11.53900       10.63500
C          0.78000       10.94800       13.94700
H          0.49800       10.58500       14.81200
H         -0.01000       11.13700       13.39800
H          1.28400       11.77700       14.08900
C          2.92800        8.97000       15.32000
H          3.68100        9.56300       15.52600
H          3.16900        8.04700       15.54300
H          2.14600        9.24000       15.84600
C          4.68300        7.72300       13.01000
H          4.74500        7.01900       12.33100
H          4.67300        7.31700       13.90100
H          5.45600        8.32100       12.93200
C          3.55700        8.75600       10.22100
H          3.94700        9.58800        9.87900
H          2.86400        8.44200        9.60400
H          4.25700        8.07500       10.30000
Cl         2.60800        3.75100        6.80200
Cl         3.90400        6.16100        7.79400
C          2.39700        5.24700        7.70600
H          2.08600        5.03600        8.62200
H          1.70200        5.79900        7.26700
