58
C:\Users\Javier\OneDrive - Universitat de Barcelona\Tesi\4 - Contribucions\Treballs\3-PhD\chapter_1\cif\pc2p\AGADIV.pc2p.pdb
Pd         5.04300       10.03000        3.82000
W          5.69200       12.91700        3.68000
P          5.51000        8.15800        2.60500
P          3.74000        8.68400        5.11700
Se         4.51200       14.45800        2.50300
Se         7.44900       13.91700        4.71900
Se         4.27600       11.88200        5.24800
Se         6.49400       11.22900        2.23600
C          4.59200        8.08500        1.03900
C          3.90400        9.16600        0.54400
H          3.91200        9.96800        1.01500
C          3.19200        9.08200       -0.65500
H          2.74800        9.82600       -0.99100
C          3.15400        7.87900       -1.33900
H          2.67000        7.81000       -2.12900
C          3.83600        6.77800       -0.84800
H          3.81400        5.97200       -1.31100
C          4.55000        6.88100        0.33300
H          5.00600        6.14000        0.66100
C          7.22300        7.72400        2.23000
C          7.81100        8.13100        1.04500
H          7.31500        8.62600        0.43500
C          9.12700        7.81000        0.75700
H          9.51000        8.09400       -0.04100
C          9.86000        7.07800        1.64200
H         10.74000        6.85000        1.44300
C          9.31300        6.68700        2.80300
H          9.81800        6.18500        3.40200
C          7.99100        7.02100        3.12700
H          7.63400        6.76700        3.94700
C          4.87100        6.74100        3.57500
H          4.77600        5.96300        3.00200
H          5.49000        6.52100        4.28900
C          3.50800        7.13200        4.16100
H          3.17800        6.42900        4.74200
H          2.86400        7.27200        3.45000
C          4.51300        8.17400        6.67600
C          4.33200        6.92100        7.19600
H          3.78200        6.31300        6.75600
C          4.96500        6.54800        8.37900
H          4.86200        5.68200        8.70300
C          5.74200        7.44800        9.07800
H          6.14300        7.20200        9.88000
C          5.91100        8.68900        8.58100
H          6.44500        9.29700        9.03800
C          5.29200        9.07700        7.38500
H          5.40600        9.94300        7.06600
C          2.05100        9.24100        5.44400
C          1.42000        9.10100        6.66800
H          1.86300        8.71900        7.39100
C          0.09300        9.55100        6.79300
H         -0.34200        9.46600        7.61000
C         -0.56300       10.10300        5.74900
H         -1.44100       10.39000        5.85400
C          0.04300       10.23800        4.56400
H         -0.41900       10.61100        3.84800
C          1.35300        9.82900        4.39800
H          1.77100        9.94800        3.57600
