93
C:\Users\Javier\OneDrive - Universitat de Barcelona\Tesi\4 - Contribucions\Treballs\3-PhD\chapter_1\cif\pc2p\AHAPUX.pc2p.pdb
Ru         1.97900        1.37700        4.62300
S          4.89500        5.31000        2.14800
O          6.81200        7.49900        1.48000
C          2.54500        2.54500        3.13900
C          3.05900        3.29500        2.30500
C          3.74000        4.20300        1.47400
C          3.66100        4.40200        0.11900
H          3.08100        3.90200       -0.44200
C          4.50600        5.40400       -0.36800
H          4.55500        5.64700       -1.28500
C          5.25600        5.99800        0.60900
C          6.23100        7.08400        0.49600
C          6.48100        7.65300       -0.86500
H          7.11900        8.39300       -0.79700
H          5.63800        7.98000       -1.24200
H          6.85000        6.95600       -1.44700
C          3.94200        1.84700        5.59500
C          3.98400        0.52400        5.03800
C          3.02600       -0.26400        5.76900
C          2.36700        0.57500        6.71500
C          2.94500        1.89200        6.59200
C          4.84000        2.99500        5.22000
H          5.58600        3.04700        5.85400
H          4.33000        3.83100        5.24700
H          5.18900        2.85400        4.31500
C          4.93300       -0.00300        4.01200
H          5.71100       -0.39600        4.45700
H          5.22400        0.73100        3.43000
H          4.48400       -0.68700        3.47300
C          2.89800       -1.76500        5.65000
H          3.64400       -2.19500        6.11900
H          2.91600       -2.02000        4.70400
H          2.05100       -2.05300        6.05000
C          1.39300        0.16700        7.78700
H          1.86000        0.10600        8.64700
H          1.00600       -0.70500        7.56400
H          0.67900        0.83500        7.85100
C          2.66600        3.02200        7.51600
H          3.23700        2.94400        8.31000
H          1.72500        2.99600        7.79000
H          2.85100        3.87000        7.06300
C         -0.25800        1.34000        2.18300
H          0.23700        2.01900        1.65900
H         -0.85000        0.83900        1.56600
C         -1.07800        2.01100        3.26500
H         -1.77000        1.38300        3.59300
H         -1.53600        2.80500        2.89100
P          0.91700        0.19400        3.00600
C          1.88700       -0.53200        1.62100
C          2.40500        0.30100        0.63200
H          2.22300        1.23300        0.65200
C          3.18700       -0.23000       -0.37700
H          3.54000        0.34000       -1.05100
C          3.45600       -1.58600       -0.41100
H          3.98700       -1.94400       -1.11200
C          2.96000       -2.41500        0.56200
H          3.15800       -3.34400        0.54100
C          2.16800       -1.89500        1.57700
H          1.81700       -2.47100        2.24600
C         -0.19000       -1.19200        3.50200
C         -0.90300       -1.94800        2.58800
H         -0.83800       -1.75900        1.65900
C         -1.71900       -2.99500        3.03900
H         -2.18600       -3.53500        2.41200
C         -1.84700       -3.24000        4.37600
H         -2.41500       -3.94000        4.67600
C         -1.17100       -2.49400        5.27600
H         -1.26500       -2.67600        6.20300
C         -0.34300       -1.46800        4.86300
H          0.12300       -0.94800        5.50700
P          0.01400        2.53000        4.68300
C         -1.08300        2.33600        6.14700
C         -1.86100        1.18900        6.29500
H         -1.84100        0.51500        5.62500
C         -2.66300        1.02500        7.40900
H         -3.19100        0.24000        7.49300
C         -2.70400        1.97400        8.38800
H         -3.26900        1.85400        9.14300
C         -1.93000        3.10400        8.28200
H         -1.94200        3.75700        8.97100
C         -1.12700        3.29000        7.16000
H         -0.60300        4.07800        7.08500
C          0.03200        4.36700        4.52000
C         -1.14600        5.08100        4.32000
H         -1.98000        4.62600        4.32700
C         -1.11100        6.45400        4.11000
H         -1.92000        6.93100        3.96700
C          0.08500        7.12400        4.10900
H          0.10600        8.06200        3.95900
C          1.26200        6.42900        4.32600
H          2.08900        6.89500        4.33500
C          1.24200        5.05500        4.53100
H          2.05400        4.58600        4.67700
