104
C:\Users\Javier\OneDrive - Universitat de Barcelona\Tesi\4 - Contribucions\Treballs\3-PhD\chapter_1\cif\pc2p\AHEJEF.pc2p.pdb
Ru         5.17100        3.08100        7.16200
C          3.47700        3.32900        6.42400
C          2.38600        3.45500        5.73300
H          2.07400        2.65300        5.33100
C          1.55200        4.65100        5.46900
C          0.59900        4.59400        4.44700
H          0.45400        3.77900        3.98200
C         -0.11100        5.68000        4.12200
H         -0.77400        5.59500        3.44800
C          0.07100        6.92900        4.71000
C          1.04100        6.99100        5.78300
H          1.19500        7.80600        6.24500
C          1.73400        5.85300        6.12600
H          2.36200        5.89600        6.83700
C         -0.60000        8.08800        4.29000
C         -1.18500        9.05100        3.89500
H         -1.64900        9.81800        3.58100
C          6.14000        4.75200        6.01700
C          6.18200        3.60500        5.15200
C          7.01600        2.59300        5.83900
C          7.48000        3.17900        7.06700
C          6.95000        4.50600        7.13600
C          5.49900        6.01000        5.61100
H          4.82500        5.82600        4.92300
H          6.17600        6.61900        5.24800
H          5.06900        6.42300        6.38700
C          5.61100        3.48700        3.82600
H          4.78300        4.00500        3.77900
H          5.42000        2.54400        3.63600
H          6.25000        3.82900        3.16500
C          7.42200        1.28900        5.26800
H          7.56900        0.64500        5.99100
H          8.25300        1.40100        4.75700
H          6.71700        0.95900        4.67300
C          8.57000        2.63500        7.90700
H          8.55700        1.65600        7.86600
H          8.44200        2.92400        8.83500
H          9.43200        2.96500        7.57900
C          7.39600        5.54500        8.17600
H          7.26700        5.18100        9.07800
H          6.86100        6.36000        8.07400
H          8.34300        5.75600        8.04200
C          3.85100        0.88700        9.40500
H          3.18100        0.16100        9.48500
H          4.57400        0.71100       10.05800
C          3.21000        2.19100        9.71100
H          3.00400        2.24000       10.67900
H          2.35800        2.26700        9.21200
P          4.55000        0.89800        7.69400
C          3.26000        0.24100        6.54200
C          3.56700        0.30500        5.18900
H          4.36500        0.73700        4.90500
C          2.72800       -0.25200        4.25500
H          2.94800       -0.21500        3.33200
C          1.55200       -0.87500        4.67200
H          0.95400       -1.26400        4.04300
C          1.27300       -0.90600        6.04400
H          0.47300       -1.32900        6.33800
C          2.10300       -0.35300        6.97800
H          1.88600       -0.37900        7.90100
C          5.74300       -0.51900        7.76000
C          6.82000       -0.46100        8.54600
H          6.99800        0.33500        9.03400
C          7.69200       -1.54200        8.66400
H          8.43300       -1.49600        9.25100
C          7.45800       -2.68400        7.91800
H          8.02800       -3.43900        8.00500
C          6.40000       -2.70800        7.05700
H          6.25700       -3.46400        6.49700
C          5.54600       -1.65600        6.99900
H          4.78800       -1.70100        6.42400
P          4.31100        3.55800        9.25000
C          5.51300        3.71800       10.59400
C          6.58100        2.81700       10.69900
H          6.65800        2.12900       10.04900
C          7.51600        2.88900       11.70000
H          8.20200        2.23800       11.74600
C          7.45100        3.91500       12.65400
H          8.10400        3.98600       13.34400
C          6.39600        4.83400       12.54400
H          6.32700        5.53900       13.17800
C          5.47300        4.74800       11.57600
H          4.77400        5.39000       11.54200
C          3.28400        5.05100        9.44000
C          3.78300        6.27700        9.10500
H          4.64700        6.32100        8.71400
C          3.08900        7.46100        9.30900
H          3.47400        8.28800        9.04400
C          1.82600        7.43700        9.90100
H          1.33200        8.23000       10.05900
C          1.33200        6.16500       10.25500
H          0.47300        6.12700       10.65000
C          1.99000        4.98900       10.07900
H          1.61500        4.16400       10.36100
B          6.35700        0.19900        1.58400
F          7.17400       -0.46100        2.46700
F          6.94000        1.35600        1.15000
F          5.13200        0.51500        2.22600
F          6.06500       -0.62500        0.50500
C          2.65800        2.55900        1.99000
H          2.86700        2.54800        2.95900
H          3.27700        1.91900        1.54500
Cl         0.98800        2.00900        1.74600
Cl         2.93100        4.15200        1.35700
