105
C:\Users\Javier\OneDrive - Universitat de Barcelona\Tesi\4 - Contribucions\Treballs\3-PhD\chapter_1\cif\pc2p\ALIDII.pc2p.pdb
Ru         1.20600        7.98600        4.97700
Cl         5.59300        7.56000       -1.19400
S          3.05400        8.96100       -0.51000
P          2.79200        6.44200        5.47400
P         -0.20800        6.20100        4.98300
O          1.78400        6.27300        2.72500
O          2.22400        4.51600        1.47300
N          2.63300        6.55800        0.54000
C          1.66900        7.63400        3.02200
C          1.99200        8.45800        1.93800
C          1.87400        9.94900        1.98300
C          0.64500       10.55200        1.75900
H         -0.09400       10.02600        1.55600
C          0.50200       11.92400        1.83700
H         -0.33200       12.31500        1.70700
C          1.59700       12.70900        2.10700
H          1.50000       13.63100        2.17700
C          2.83300       12.13700        2.27600
H          3.57600       12.67500        2.43300
C          2.97700       10.75400        2.21100
H          3.81700       10.36900        2.32100
C          2.22000        5.72900        1.52900
C          2.50900        7.85400        0.77600
C          3.90300        7.84800       -1.61000
H          3.43600        6.99800       -1.61300
H          3.86200        8.20900       -2.50800
C          2.16300        4.71700        5.24200
H          2.33700        4.42900        4.33200
H          2.63300        4.11700        5.84300
C          0.67100        4.64600        5.51900
H          0.52800        4.51000        6.47000
H          0.29300        3.88700        5.04900
C          4.37500        6.45100        4.54600
C          4.75900        7.59600        3.88000
H          4.21900        8.35200        3.90400
C          5.96300        7.61700        3.16900
H          6.21900        8.38200        2.70800
C          6.75700        6.50800        3.15500
H          7.56000        6.52700        2.68500
C          6.38800        5.35400        3.83200
H          6.93200        4.60200        3.81600
C          5.20400        5.34700        4.52900
H          4.95500        4.58300        4.99700
C          3.41300        6.46300        7.20800
C          4.45600        7.31300        7.55900
H          4.85800        7.84100        6.90500
C          4.90300        7.38300        8.86800
H          5.59600        7.96200        9.09000
C          4.33000        6.60400        9.83500
H          4.63300        6.65300       10.71400
C          3.30900        5.75200        9.50400
H          2.93000        5.21100       10.15900
C          2.83600        5.69200        8.20200
H          2.12500        5.12800        7.99500
C         -1.55900        6.36900        6.21500
C         -1.33800        6.17800        7.57500
H         -0.50900        5.87500        7.86900
C         -2.33400        6.43400        8.49400
H         -2.18000        6.28600        9.39900
C         -3.56400        6.91300        8.07200
H         -4.22700        7.11100        8.69500
C         -3.80400        7.09600        6.73800
H         -4.63600        7.40200        6.45500
C         -2.82000        6.83000        5.80700
H         -2.99300        6.95700        4.90100
C         -1.15800        5.71500        3.48900
C         -1.75100        4.45700        3.37400
H         -1.64000        3.83500        4.05700
C         -2.50000        4.12300        2.26500
H         -2.88000        3.27700        2.19900
C         -2.68800        5.03900        1.26000
H         -3.19600        4.81500        0.51300
C         -2.12400        6.28900        1.36100
H         -2.25300        6.91100        0.68100
C         -1.35900        6.63100        2.47000
H         -0.98000        7.47900        2.52800
C         -0.18600        9.29800        6.15100
H         -1.12000        9.08300        6.35400
C          0.23000       10.02600        5.08300
H         -0.34600       10.42600        4.39900
C          1.60100       10.20100        5.20000
H          2.16800       10.75200        4.62000
C          1.99100        9.55800        6.33800
H          2.89100        9.58100        6.72900
C          0.85900        9.00200        6.93400
H          0.81900        8.56900        7.81300
C          4.74600        8.07700       -5.86300
O          3.52400        7.95000       -5.58000
C          5.30600        8.48600       -7.35400
H          4.56400        8.66900       -7.93500
H          5.82200        7.76000       -7.71000
H          5.85800        9.26800       -7.28400
C          6.10900        7.82200       -5.12100
H          5.93500        7.57100       -4.21000
H          6.63700        8.62300       -5.13700
H          6.58600        7.11500       -5.56200
O          3.79600        8.34000       -4.98600
C          4.02700        8.16500       -7.17000
H          3.10300        7.93300       -7.04400
H          4.42600        7.55600       -7.79700
H          4.08800        9.06100       -7.51000
C          6.14100        7.91600       -5.35200
H          6.11600        7.65400       -4.42800
H          6.61000        8.75100       -5.43300
H          6.59500        7.24300       -5.86300
