188
C:\Users\Javier\OneDrive - Universitat de Barcelona\Tesi\4 - Contribucions\Treballs\3-PhD\chapter_1\cif\pc2p\ALIDEE.pc2p.pdb
Ru        14.07300        9.39200        5.42100
S          8.16800        8.81400        5.81500
P         14.70000        7.21600        5.64300
P         14.42000        9.04300        3.21300
O         12.11700        7.54000        4.42300
O         11.28800        5.80200        3.49100
N          9.80800        7.22500        4.53700
C         12.15000        8.72800        5.20000
C         10.89300        9.12500        5.63300
C          9.71300        8.37100        5.31500
C         10.99000        6.89300        4.17500
C         10.72700       10.34100        6.47500
C         10.52100       11.57800        5.90600
H         10.49000       11.66500        4.96000
C         10.35800       12.71200        6.71700
H         10.20900       13.56100        6.32200
C         10.41200       12.59200        8.08000
H         10.31400       13.36200        8.62800
C         10.60600       11.36300        8.65700
H         10.64000       11.28200        9.60100
C         10.75400       10.23500        7.85500
H         10.87400        9.38300        8.26000
C         10.21100        4.86700        3.27400
H          9.67800        4.77300        4.10300
H          9.61400        5.20300        2.55900
C         10.75500        3.59100        2.89700
H         10.02500        2.95400        2.75400
H         11.34100        3.26200        3.60900
H         11.27000        3.68800        2.06800
C         15.01200        6.46200        3.99000
H         15.73000        5.78600        4.06900
H         14.19200        6.00100        3.67900
C         15.41300        7.50000        2.98500
H         15.27200        7.14800        2.07000
H         16.37600        7.70600        3.08900
C         13.55500        6.00800        6.40600
C         12.63700        6.44300        7.35600
H         12.66000        7.34500        7.65600
C         11.68700        5.57100        7.87000
H         11.06200        5.88000        8.51400
C         11.64900        4.26200        7.44900
H         10.98400        3.67400        7.78800
C         12.57300        3.80800        6.53800
H         12.56100        2.90000        6.26100
C         13.52200        4.67600        6.02300
H         14.16300        4.35300        5.39900
C         16.26400        6.90900        6.56100
C         16.27900        6.19400        7.73800
H         15.46800        5.84500        8.08600
C         17.47300        5.97800        8.42300
H         17.47100        5.50500        9.24600
C         18.65700        6.45300        7.89900
H         19.47400        6.28900        8.35700
C         18.66300        7.15700        6.72800
H         19.48000        7.48200        6.36900
C         17.46600        7.39600        6.06700
H         17.46900        7.90200        5.26200
C         15.47300       10.27600        2.34100
C         16.83700       10.35300        2.61700
H         17.21200        9.76300        3.26100
C         17.65500       11.26700        1.98000
H         18.58500       11.28700        2.17400
C         17.13100       12.13900        1.07400
H         17.69700       12.74500        0.61300
C         15.79000       12.13800        0.83500
H         15.41600       12.78200        0.24300
C         14.96000       11.19800        1.45100
H         14.03000       11.19400        1.25600
C         12.97600        8.90000        2.10300
C         11.96700        9.82800        2.23700
H         12.06700       10.54000        2.85700
C         10.80700        9.74000        1.48100
H         10.12500       10.39400        1.57400
C         10.65300        8.69000        0.58900
H          9.86600        8.62600        0.06000
C         11.63900        7.74400        0.47200
H         11.51900        7.00900       -0.11700
C         12.80100        7.85100        1.20200
H         13.48800        7.20500        1.09300
C         14.98100       11.43900        5.42500
H         15.17300       11.99600        4.61600
C         15.87900       10.55700        6.04500
H         16.82200       10.37900        5.76700
C         15.24200       10.05600        7.20600
H         15.65900        9.45400        7.88500
C         13.97100       10.62800        7.29700
H         13.32100       10.50600        8.04900
C         13.80800       11.49000        6.19300
H         13.02000       12.08100        6.02100
Ru         4.39600        1.52200        5.39100
S         10.29100        0.86600        5.68800
P          3.71100       -0.63200        5.64500
P          4.07000        1.17000        3.18500
O          6.31800       -0.31600        4.29100
O          7.09700       -2.16600        3.48600
N          8.60200       -0.75800        4.50600
C          6.30500        0.83600        5.14100
C          7.56400        1.18200        5.59100
C          8.73800        0.43100        5.23300
C          7.41300       -1.04000        4.13400
C          7.74400        2.37600        6.46600
C          7.98500        3.62500        5.93900
H          8.06100        3.72300        4.99600
C          8.12000        4.73900        6.75200
H          8.28100        5.59300        6.36700
C          8.02500        4.60500        8.11300
H          8.11500        5.36800        8.67200
C          7.79900        3.36400        8.67300
H          7.73400        3.26800        9.61600
C          7.66500        2.25100        7.84100
H          7.51800        1.39600        8.22500
C          8.10400       -3.22100        3.52900
H          8.37200       -3.39900        4.46400
H          8.90700       -2.94700        3.02000
C          7.50800       -4.44400        2.92500
H          8.16500       -5.17100        2.94300
H          7.25200       -4.25800        1.99700
H          6.71500       -4.70900        3.43500
C          3.06000       -1.29000        4.03200
H          3.25200       -2.26000        3.97900
H          2.07800       -1.17400        4.01000
C          3.66200       -0.60500        2.82800
H          3.02300       -0.64900        2.07400
H          4.48600       -1.08200        2.55900
C          4.92600       -1.85500        6.27600
C          5.82900       -1.43300        7.25100
H          5.79000       -0.54100        7.57700
C          6.78100       -2.30500        7.74700
H          7.39200       -2.00800        8.41000
C          6.84800       -3.59500        7.29200
H          7.51300       -4.18400        7.62500
C          5.95500       -4.03200        6.35500
H          5.99400       -4.93100        6.04900
C          4.99000       -3.17500        5.84400
H          4.37100       -3.49200        5.19600
C          2.26800       -0.96800        6.73000
C          2.36100       -1.77800        7.85000
H          3.20400       -2.13800        8.09700
C          1.23900       -2.07100        8.61800
H          1.32000       -2.62500        9.38400
C          0.01600       -1.55900        8.26900
H         -0.75100       -1.78100        8.78000
C         -0.10600       -0.72500        7.18400
H         -0.95300       -0.36100        6.95500
C          1.01800       -0.41700        6.42200
H          0.93500        0.17300        5.68300
C          2.66800        2.14800        2.52200
C          1.36800        1.78700        2.83100
H          1.20700        0.96700        3.28200
C          0.30000        2.59900        2.49600
H         -0.58500        2.34400        2.73300
C          0.52300        3.77600        1.81700
H         -0.20600        4.34200        1.59200
C          1.80400        4.13400        1.46200
H          1.95300        4.93200        0.97000
C          2.88000        3.33100        1.82100
H          3.76300        3.59000        1.58900
C          5.34100        1.51200        1.91600
C          6.45000        2.29300        2.20900
H          6.58600        2.62000        3.09100
C          7.36200        2.59400        1.19700
H          8.11100        3.14500        1.39100
C          7.19500        2.11100       -0.06200
H          7.83300        2.31600       -0.73600
C          6.11300        1.33500       -0.36800
H          6.00000        0.99900       -1.25000
C          5.18600        1.03800        0.61700
H          4.43000        0.50400        0.40100
C          4.49700        2.76100        7.27500
H          5.12600        2.61700        8.03800
C          3.22400        2.21700        7.15400
H          2.78000        1.62400        7.82600
C          2.61800        2.72300        5.99000
H          1.67400        2.57400        5.69700
C          3.55100        3.59000        5.39000
H          3.38400        4.15000        4.57700
C          4.71100        3.61900        6.17500
H          5.51500        4.19200        6.02100
C         11.48400       14.66200        2.84000
H         10.71800       14.69600        3.48300
Cl        11.32300       13.22600        1.83800
Cl        12.98100       14.57800        3.74800
Cl        11.43100       16.07300        1.83100
C          6.71500        7.13500        2.98900
H          7.29700        7.47300        3.73000
Cl         5.35700        8.23200        2.76100
Cl         6.12700        5.56800        3.39100
Cl         7.61900        7.08200        1.53200
