122
C:\Users\Javier\OneDrive - Universitat de Barcelona\Tesi\4 - Contribucions\Treballs\3-PhD\chapter_1\cif\pc2p\ALOYOQ.pc2p.pdb
Ru         4.39200        4.35300        8.64700
P          6.27600        3.11000        9.01500
P          3.45600        2.76500       10.05100
N          3.68600        6.27700       10.88400
C          4.65000        5.60500       10.23300
C          5.95500        6.07300       10.86700
H          6.50600        5.28500       11.14200
C          6.76900        6.97400        9.85900
H          6.93000        6.44600        9.02600
C          8.12800        7.33200       10.47400
H          8.63200        7.89100        9.84700
H          8.63000        6.50900       10.65500
H          7.98900        7.82200       11.31000
C          6.04300        8.24600        9.48100
H          5.58200        8.72400       10.16200
C          6.02100        8.72000        8.26400
H          5.49900        9.54900        8.24500
H          5.61100        8.06100        7.66500
H          6.93700        8.90500        7.96900
C          2.24300        6.21700       10.63800
H          1.78800        5.98500       11.48500
H          2.06200        5.48900        9.99300
C          1.65000        7.47500       10.11100
H          0.71000        7.47600        9.97200
C          2.26500        8.54900        9.82700
H          3.20600        8.57100        9.96600
C          1.59900        9.80300        9.27900
H          2.27600       10.49800        9.14000
H          0.93000       10.12400        9.92000
H          1.16200        9.59600        8.42800
C          4.16200        7.00700       12.01500
C          3.43700        7.71000       12.95900
H          2.49200        7.79500       12.89800
C          4.14800        8.28400       13.99900
H          3.68800        8.79700       14.65400
C          5.52200        8.12200       14.10100
H          5.98500        8.50000       14.83900
C          6.22800        7.41300       13.13500
H          7.17000        7.31300       13.20100
C          5.53600        6.85600       12.07900
C          4.92100        5.57700        6.85200
H          5.76800        6.09200        6.71600
C          4.67100        4.23400        6.42600
H          5.32000        3.64200        5.95100
C          3.33800        3.92000        6.71100
H          2.87300        3.06600        6.47500
C          2.72600        5.07800        7.29700
H          1.76300        5.16800        7.54800
C          3.69900        6.09100        7.37100
H          3.54600        7.02500        7.69000
C          4.75400        1.57600       10.62800
H          4.53500        1.26600       11.54100
H          4.76900        0.78600       10.03100
C          6.12500        2.23800       10.62900
H          6.83900        1.55900       10.72300
H          6.19900        2.88200       11.37900
C          7.95600        3.81200        8.99500
C          8.39600        4.42600        7.83200
H          7.82900        4.45200        7.07000
C          9.65500        4.99800        7.76800
H          9.95700        5.39500        6.96000
C         10.47300        4.99000        8.88500
H         11.32800        5.40300        8.84900
C         10.04700        4.37900       10.05400
H         10.61400        4.36500       10.81500
C          8.79000        3.78600       10.11600
H          8.49800        3.36500       10.91700
C          6.47200        1.65200        7.90300
C          7.73400        1.08600        7.64700
H          8.51600        1.50800        7.98100
C          7.84200       -0.08800        6.90500
H          8.69800       -0.45700        6.72700
C          6.70000       -0.72500        6.42300
H          6.77700       -1.53400        5.93200
C          5.45500       -0.17500        6.66400
H          4.67600       -0.60600        6.33300
C          5.33900        1.00200        7.38400
H          4.47800        1.37600        7.53200
C          2.14400        1.67900        9.36400
C          1.10500        2.26000        8.65100
H          1.12100        3.19200        8.47400
C          0.03800        1.48800        8.19100
H         -0.67900        1.89800        7.72100
C          0.03000        0.13900        8.42100
H         -0.68800       -0.39200        8.09800
C          1.06800       -0.45800        9.12700
H          1.06300       -1.39600        9.27700
C          2.10600        0.31000        9.60900
H          2.80000       -0.09800       10.11200
C          2.70900        3.23500       11.66200
C          1.36200        3.07000       11.94700
H          0.78100        2.71500       11.28500
C          0.85500        3.41900       13.19600
H         -0.07000        3.30400       13.38000
C          1.68800        3.92600       14.15900
H          1.33800        4.16200       15.01200
C          3.03600        4.09900       13.89900
H          3.61100        4.44800       14.56800
C          3.54100        3.75700       12.65000
H          4.46400        3.87900       12.46700
P          3.45800       16.43200        6.50400
F          2.99600       15.47600        7.71000
F          3.89800       17.37700        5.28100
F          3.84000       15.14300        5.65000
F          4.92600       16.49000        7.09700
F          3.05500       17.71100        7.36700
F          1.96300       16.37500        5.90500
C          0.94800       13.32200        6.32800
H          1.45900       14.18000        6.37100
Cl         0.39100       12.92500        7.95500
Cl        -0.42000       13.54700        5.26800
Cl         2.01300       12.07500        5.69600
C         -1.36100        8.71800        6.28300
H         -2.01700        8.00200        6.04800
Cl         0.17600        8.04300        6.32500
Cl        -1.90900        9.52400        7.77500
Cl        -1.24000        9.76200        5.00700
C         -1.36100        8.71800        6.28300
Cl         0.18300        7.85600        6.65100
Cl        -2.15300        8.81500        7.57800
Cl        -1.30200       10.40800        5.42000
H         -1.88200        8.11400        5.68000
