81
C:\Users\Javier\OneDrive - Universitat de Barcelona\Tesi\4 - Contribucions\Treballs\3-PhD\chapter_1\cif\pc2p\APOSIH.pc2p.pdb
Ru         1.48700        9.38300       10.73900
P          2.57400       11.38100       10.91800
P          3.45300        8.66800        9.84600
N          3.46300        9.16300       13.06200
N          2.19900        8.95600       12.66700
N          1.42000        8.53300       13.65100
N          1.39800        7.72700       17.04100
C          2.23100        8.48200       14.73500
C          3.48800        8.86700       14.36000
C          1.75100        8.07600       16.01800
C          4.39300       11.11400       10.78800
C          4.68300       10.05000        9.74300
C          2.38400       12.32100       12.47700
C          1.32700       12.03100       13.31300
C          1.12700       12.75200       14.48300
C          2.01100       13.74900       14.82600
C          3.06500       14.03900       14.00900
C          3.25600       13.34300       12.82600
C          2.20300       12.67700        9.67300
C          3.10400       13.06200        8.69400
C          2.77500       14.06800        7.79400
C          1.56300       14.69600        7.85800
C          0.65500       14.31400        8.80700
C          0.96700       13.31200        9.71300
C          3.35400        8.10700        8.09800
C          3.55000        6.78700        7.72100
C          3.42200        6.40200        6.39500
C          3.08700        7.33000        5.42700
C          2.86700        8.63100        5.78900
C          2.99400        9.02800        7.10600
C          4.31200        7.26000       10.63200
C          3.52300        6.26800       11.18300
C          4.09300        5.10900       11.70000
C          5.45900        4.96100       11.68200
C          6.24300        5.92700       11.14700
C          5.68800        7.08600       10.61300
C         -0.03100        7.87400       10.15400
C         -0.56900        8.67900       11.16600
C         -0.64900        9.99200       10.69100
C         -0.14200        9.98800        9.42100
C          0.22200        8.72100        9.08500
N          0.18400        4.99600       12.29100
C          0.75200        4.94100       13.19900
C          1.79500        5.05100       14.47800
H          4.23200        8.91400       14.91500
H          4.82900       11.94500       10.53900
H          4.74400       10.83400       11.64800
H          5.57700        9.69800        9.88000
H          4.65000       10.44800        8.85900
H          0.74100       11.34500       13.09200
H          0.39900       12.56200       15.03100
H          1.89000       14.22500       15.61500
H          3.66200       14.71100       14.24800
H          3.96700       13.56000       12.26700
H          3.93300       12.64600        8.63800
H          3.38800       14.31800        7.14000
H          1.35700       15.37800        7.25900
H         -0.17600       14.72800        8.84600
H          0.34200       13.06100       10.35500
H          3.77300        6.15300        8.36400
H          3.56100        5.51500        6.15600
H          3.01200        7.07100        4.53800
H          2.62900        9.25500        5.14000
H          2.83800        9.91500        7.33600
H          2.60000        6.37800       11.21100
H          3.55500        4.43900       12.05400
H          5.84600        4.19400       12.03700
H          7.16600        5.81500       11.13800
H          6.23700        7.74100       10.24500
H          0.07100        6.90000       10.17000
H         -0.89800        8.36500       12.03400
H         -1.04700       10.75700       11.15700
H         -0.12200       10.76000        8.81800
H          0.54400        8.44000        8.20300
H          2.26100        5.89100       14.49700
H          2.46100        4.36800       14.36200
H          1.28400        5.00000       15.15900
C          1.88800        4.31900       15.01800
C          2.93100        4.42900       16.29700
N          3.49900        4.37500       17.20500
H          1.42200        3.48000       14.99900
