100
C:\Users\Javier\OneDrive - Universitat de Barcelona\Tesi\4 - Contribucions\Treballs\3-PhD\chapter_1\cif\pc2p\APOSUT.pc2p.pdb
Ru        -2.06800        8.95800        2.08000
P         -3.94300        9.96800        2.90500
P         -1.38800       11.10800        1.68200
O         -0.61000       11.21600        7.46300
O          1.41000       10.22900        7.54600
O          2.41100        5.98000        2.95800
O          0.91700        5.37500        4.49700
N         -1.06700        9.00500        3.93600
N          0.04700        8.29400        4.05200
N          0.62100        8.67700        5.20400
C         -0.11900        9.63500        5.82800
C         -1.19800        9.82300        5.01800
C          0.27500       10.42700        7.06800
C          1.89400        8.14000        5.56600
C          2.44800        7.06300        5.05100
C          1.93300        6.12800        4.05300
C          0.48500        4.30600        3.63400
C         -3.70100       11.78800        3.06800
C         -2.78200       12.28000        1.92700
C         -4.55000        9.44200        4.56000
C         -4.20500        8.17900        5.01800
C         -4.66100        7.74300        6.25200
C         -5.41200        8.54800        7.03900
C         -5.76400        9.81700        6.60700
C         -5.33100       10.26300        5.34600
C         -5.44200        9.80600        1.87000
C         -6.22600        8.65500        1.94800
C         -7.31900        8.48300        1.12500
C         -7.65700        9.44900        0.20600
C         -6.91800       10.60500        0.12900
C         -5.81700       10.79400        0.94900
C         -0.04800       11.70100        2.75900
C          1.12300       10.93700        2.80900
C          2.12600       11.23800        3.68800
C          2.00000       12.31500        4.56700
C          0.86200       13.08400        4.53000
C         -0.17300       12.78700        3.62900
C         -0.85500       11.51600       -0.01600
C         -1.73500       11.26100       -1.06800
C         -1.37600       11.50100       -2.37800
C         -0.12000       11.99500       -2.67300
C          0.76100       12.25600       -1.65800
C          0.40700       12.00800       -0.32200
C         -1.39300        8.14300        0.13700
C         -0.81700        7.35800        1.15100
C         -1.90300        6.75300        1.87400
C         -3.10900        7.15600        1.29100
C         -2.80500        8.04600        0.22000
C          6.54600        3.84600        4.08700
Cl         5.24300        4.91000        3.62100
Cl         7.27800        3.14500        2.64600
Cl         7.76200        4.66900        5.04900
O         11.39000       -0.67600        8.35900
O          8.37600        0.16100        8.95100
O          7.46600        2.09600        7.77800
O         10.35400        1.59000        7.47200
H         -1.91900       10.41800        5.17800
H          2.38400        8.60100        6.23800
H          3.31700        6.86200        5.37900
H         -0.25900        3.82600        4.05600
H          1.22800        3.68700        3.48200
H          0.18900        4.67700        2.77600
H         -4.57500       12.24900        3.01800
H         -3.29000       11.99600        3.94400
H         -2.42700       13.17600        2.15000
H         -3.30400       12.35600        1.08900
H         -3.65800        7.61400        4.48500
H         -4.44400        6.86700        6.55000
H         -5.70000        8.24300        7.89100
H         -6.29100       10.38300        7.16000
H         -5.57600       11.12700        5.03500
H         -6.00300        7.97900        2.57700
H         -7.84100        7.69300        1.19400
H         -8.39800        9.31700       -0.37200
H         -7.16400       11.27900       -0.49200
H         -5.31400       11.59800        0.88800
H          1.22200       10.19700        2.22200
H          2.91600       10.70900        3.70200
H          2.69200       12.51500        5.18400
H          0.77400       13.82500        5.11800
H         -0.95800       13.32200        3.61200
H         -2.60000       10.91700       -0.87900
H         -1.99100       11.32300       -3.07800
H          0.13100       12.15400       -3.57600
H          1.61900       12.60900       -1.86000
H          1.03300       12.17700        0.37400
H         -0.88700        8.65100       -0.56100
H          0.15900        7.20100        1.30300
H         -1.81100        6.10200        2.62900
H         -4.02200        6.84400        1.55300
H         -3.46400        8.45100       -0.41400
H          6.16300        3.10300        4.63600
H         10.48500       -0.80700        8.51600
H         11.60900        0.17200        8.01400
H          7.57900       -0.23100        8.69900
H          8.81500        0.47700        8.29900
H          7.74900        1.85900        6.78200
H          6.39000        1.86100        8.07900
H         10.92400        1.54300        6.58000
H         10.16200        0.77300        8.03600
