76
C:\Users\Javier\OneDrive - Universitat de Barcelona\Tesi\4 - Contribucions\Treballs\3-PhD\chapter_1\cif\pc2p\APOSED.pc2p.pdb
Ru         7.04700        3.77500        0.69000
P          7.98200        2.30900       -0.78700
P          8.80900        5.09900        0.09700
O          1.84200        5.02600       -1.69600
O          2.67700        6.29800       -3.34900
N          6.41200        5.14700       -1.97700
N          5.90800        4.62800       -0.83400
N          4.57200        4.65200       -0.79900
C          4.20600        5.24000       -1.96900
C          5.34900        5.54300       -2.68300
C          2.79100        5.47800       -2.28000
C          1.33000        6.66500       -3.71500
C          9.53600        3.00100       -1.54200
C          9.55000        4.52900       -1.48200
C          8.57800        0.75200       -0.01300
C          9.62500        0.79800        0.91100
C         10.05500       -0.34300        1.54900
C          9.45100       -1.56900        1.28600
C          8.42200       -1.63200        0.39000
C          7.98600       -0.47600       -0.26200
C          7.06900        1.66700       -2.24200
C          7.72100        0.94200       -3.25300
C          7.03700        0.40300       -4.31900
C          5.66400        0.56900       -4.39900
C          4.99500        1.26100       -3.41900
C          5.69500        1.80900       -2.34100
C          8.58300        6.89400       -0.16200
C          7.44900        7.53700        0.29300
C          7.31200        8.91200        0.15600
C          8.29500        9.64900       -0.44400
C          9.43500        9.02300       -0.88500
C          9.58900        7.65800       -0.74200
C         10.20800        5.14000        1.28800
C         10.07800        5.89700        2.45800
C         11.09200        5.94200        3.38000
C         12.26900        5.24500        3.18200
C         12.42500        4.51900        2.03200
C         11.40000        4.46400        1.08600
C          6.54400        2.26600        2.21200
C          5.39300        3.00600        1.94600
C          5.63300        4.32700        2.32000
C          6.90400        4.41100        2.81900
C          7.50300        3.14500        2.74900
H          5.37600        5.96300       -3.53500
H          1.35300        7.25200       -4.49900
H          0.90500        7.13600       -2.96700
H          0.81700        5.85800       -3.92600
H         10.32300        2.64600       -1.05800
H          9.60000        2.71000       -2.48700
H          9.03700        4.89700       -2.24400
H         10.48200        4.85600       -1.55100
H         10.04500        1.62900        1.10200
H         10.77000       -0.29300        2.17300
H          9.75300       -2.35500        1.72700
H          8.00100       -2.46500        0.21100
H          7.27300       -0.53300       -0.88600
H          8.66100        0.82000       -3.19800
H          7.50200       -0.08100       -4.99300
H          5.18300        0.20400       -5.12000
H          4.05300        1.36700       -3.47500
H          5.22200        2.28300       -1.66900
H          6.75500        7.03300        0.70300
H          6.53100        9.34400        0.48100
H          8.18800       10.58600       -0.55600
H         10.12400        9.53600       -1.29100
H         10.38600        7.23900       -1.04300
H          9.28000        6.38700        2.61300
H         10.98300        6.46100        4.16700
H         12.95900        5.26900        3.83300
H         13.23700        4.04900        1.87800
H         11.52200        3.95700        0.29200
H          6.64200        1.27600        2.11400
H          4.52500        2.64000        1.61000
H          4.96700        5.07200        2.28800
H          7.32200        5.22900        3.21000
H          8.40300        2.89300        3.10900
