79
C:\Users\Javier\OneDrive - Universitat de Barcelona\Tesi\4 - Contribucions\Treballs\3-PhD\chapter_1\cif\pc2p\ATAGOS.pc2p.pdb
Pd        12.86200       14.44900        1.72400
P         13.28500       13.82800       -0.46600
P         14.08700       12.53200        2.32700
Si        11.66800       16.43400        1.17500
Si        12.32500       15.25600        3.86900
Si        14.15500       16.25100        4.97700
Si        12.19400       13.85000        5.72700
C         10.52700       16.95900        2.60300
C          9.43600       17.84000        2.49400
C          8.64300       18.14100        3.57700
C          8.93200       17.60000        4.81900
C         10.03400       16.76800        4.96300
C         10.83000       16.42900        3.85600
C         12.79800       17.91900        0.88800
C         10.55800       16.41700       -0.37000
C         14.83200       14.80700        6.00200
C         16.14000       14.78500        6.49400
C         16.62400       13.69800        7.19400
C         15.83500       12.59200        7.37300
C         14.52300       12.59200        6.92700
C         13.99000       13.69700        6.24200
C         15.53700       16.85700        3.85100
C         13.64700       17.61800        6.14100
C         14.54500       12.48300       -0.46200
C         14.41900       11.58300        0.77700
C         14.11200       15.07900       -1.61200
C         15.37900       15.67000       -1.02000
C         11.98700       13.20500       -1.51600
C         11.36300       11.96600       -1.04100
C         15.74500       12.73800        3.06600
C         16.73900       13.50100        2.18800
C         13.36800       11.21400        3.38500
C         11.92600       10.88300        3.04100
H          9.24000       18.23500        1.65300
H          7.90000       18.72100        3.47400
H          8.37900       17.79600        5.56600
H         10.25100       16.42200        5.82000
H         13.41900       17.72100        0.15600
H         13.30500       18.10700        1.70500
H         12.25600       18.70200        0.65200
H          9.92800       15.67000       -0.31100
H         11.11600       16.31200       -1.16900
H         10.06200       17.26100       -0.42500
H         16.70700       15.53300        6.34400
H         17.50400       13.71600        7.55000
H         16.18700       11.82400        7.80500
H         13.97500       11.83100        7.08700
H         15.80500       16.13600        3.24400
H         16.30500       17.12900        4.39500
H         15.22000       17.62300        3.32800
H         12.92400       17.30000        6.72200
H         13.33500       18.39000        5.62300
H         14.41600       17.88300        6.68900
H         14.43800       11.93200       -1.27700
H         15.45000       12.88400       -0.48300
H         15.25700       11.06800        0.88800
H         13.68300       10.93700        0.63200
H         14.33200       14.63500       -2.46900
H         13.47400       15.81100       -1.80400
H         15.76500       16.31400       -1.64900
H         16.02500       14.95300       -0.84900
H         15.16500       16.12300       -0.17800
H         11.28800       13.90000       -1.60000
H         12.36200       13.04500       -2.41900
H         10.68100       11.67800       -1.68200
H         10.94600       12.12500       -0.17000
H         12.04700       11.26900       -0.95500
H         15.65000       13.21800        3.92800
H         16.11800       11.84200        3.26300
H         17.59500       13.57700        2.65500
H         16.38700       14.39500        2.00000
H         16.86600       13.01600        1.34500
H         13.91500       10.39400        3.29200
H         13.41500       11.50100        4.33100
H         11.59800       10.18300        3.64600
H         11.87400       10.56500        2.11600
H         11.37300       11.68700        3.14300
H         11.67000       12.51500        5.61100
H         11.53200       14.52000        6.71500
