59
C:\Users\Javier\OneDrive - Universitat de Barcelona\Tesi\4 - Contribucions\Treballs\3-PhD\chapter_1\cif\pc2p\ATAGIM.pc2p.pdb
Pd         1.94600        3.41300        3.25800
P          0.72900        2.60500        1.44300
P          0.16700        2.70000        4.58900
Si         3.77800        4.26900        2.04400
Si         3.27100        4.14900        5.04500
C          4.87100        5.38200        3.12300
C          5.85100        6.24800        2.63600
C          6.66100        6.97300        3.49000
C          6.51200        6.84600        4.85200
C          5.53800        6.01200        5.36100
C          4.69300        5.27700        4.52000
C          3.31100        5.31500        0.54200
C          4.97500        2.95700        1.37900
C         -0.70100        1.66000        2.14100
C         -1.21000        2.26600        3.46000
C         -0.04100        3.75600        0.24500
C         -0.67800        4.97000        0.86900
C          1.51000        1.40600        0.30800
C          2.21300        0.25400        1.00900
C         -0.62500        3.83100        5.77700
C         -1.87400        3.28700        6.48300
C          0.49500        1.19700        5.60200
C          1.35200        0.19200        4.90700
H          2.57400        4.88500        6.02000
H          3.81600        3.08700        5.82900
H          5.96400        6.34100        1.69700
H          7.32100        7.55800        3.13800
H          7.07800        7.33200        5.44100
H          5.43800        5.93600        6.30200
H          4.10400        5.78800        0.21300
H          2.96000        4.73200       -0.16500
H          2.62500        5.96600        0.79700
H          5.64000        3.38400        0.80100
H          4.47400        2.28900        0.86500
H          5.42800        2.51800        2.13000
H         -1.44000        1.66900        1.48300
H         -0.41500        0.72600        2.30300
H         -1.79100        1.60200        3.90800
H         -1.73500        3.08100        3.26000
H          0.65900        4.06400       -0.38400
H         -0.73900        3.26200       -0.25500
H         -1.03700        5.54900        0.16500
H         -0.00700        5.46100        1.38500
H         -1.40600        4.68800        1.46200
H          0.80500        1.02700       -0.27500
H          2.17400        1.88600       -0.24600
H          2.74700       -0.24700        0.35800
H          1.54700       -0.34200        1.41200
H          2.80000        0.60900        1.70800
H          0.04200        4.05700        6.47200
H         -0.88500        4.65300        5.28900
H         -1.63100        2.50600        7.02100
H         -2.54200        3.02900        5.81500
H         -2.24600        3.98300        7.06400
H          0.95000        1.47400        6.43700
H         -0.37000        0.77100        5.82400
H          0.89400       -0.12600        4.10200
H          1.52100       -0.56400        5.50800
H          2.20400        0.60700        4.65600
