169
C:\Users\Javier\OneDrive - Universitat de Barcelona\Tesi\4 - Contribucions\Treballs\3-PhD\chapter_1\cif\pc2p\AVEZIK.pc2p.pdb
Pd         3.69800       12.10800       18.89700
Cl         2.30100       11.18400       17.25500
Cl         2.07400       13.70900       19.47000
P          5.42000       10.82700       18.13500
P          4.97700       12.65200       20.73500
N          0.28700        6.08300       14.98000
C          6.31800       10.54700       19.72000
H          5.75800       10.02500       20.34600
H          7.15900       10.05000       19.55800
C          6.61700       11.92100       20.29700
H          7.08300       12.48500       19.62800
H          7.19000       11.84300       21.10200
C          6.67700       11.82600       17.21200
C          7.99700       11.31000       17.10500
C          8.99100       12.11900       16.58900
H          9.88100       11.78500       16.56300
C          8.74900       13.39400       16.10500
C          7.44900       13.86000       16.15100
H          7.26500       14.72300       15.80100
C          6.39500       13.11900       16.69000
C          8.43000        9.88400       17.44600
H          7.63700        9.40100       17.81600
C          9.53500        9.85200       18.50000
H          9.78000        8.92300       18.69000
H          9.21500       10.27900       19.32100
H         10.31900       10.33500       18.16400
C          8.88500        9.14500       16.18200
H          9.15700        8.23300       16.41700
H          9.64300        9.61800       15.78000
H          8.14600        9.10900       15.53900
C          9.85700       14.24800       15.53500
H          9.43500       14.95500       14.96700
C         10.81500       13.46000       14.65400
H         10.31000       13.01300       13.94200
H         11.27900       12.78900       15.19600
H         11.47000       14.06900       14.25700
C         10.61300       14.94600       16.65300
H          9.98200       15.44700       17.21000
H         11.27000       15.56300       16.26900
H         11.07500       14.27700       17.20300
C          5.00500       13.73500       16.53600
H          4.33400       13.05000       16.82000
C          4.77500       14.98300       17.36900
H          4.95300       14.78500       18.31300
H          3.84600       15.27900       17.26500
H          5.37800       15.69400       17.06500
C          4.70500       14.10700       15.06800
H          3.80200       14.48500       15.00600
H          4.76300       13.30400       14.50900
H          5.35700       14.76900       14.75900
C          5.24600        9.26200       17.14100
C          5.32100        7.96300       17.69200
C          5.49900        6.88000       16.84200
H          5.59300        6.01600       17.22600
C          5.54400        6.99500       15.46400
C          5.34000        8.25700       14.93900
H          5.30400        8.35400       13.99400
C          5.18500        9.39200       15.72300
C          5.21800        7.60900       19.17800
H          4.99600        8.44600       19.68000
C          4.09600        6.59300       19.43300
H          3.25000        6.94500       19.08200
H          4.01000        6.43500       20.39500
H          4.30900        5.74900       18.98100
C          6.54000        7.05900       19.73900
H          7.25600        7.71100       19.58600
H          6.76300        6.21900       19.28500
H          6.44400        6.89500       20.69900
C          5.77700        5.81700       14.54900
H          5.86900        4.99600       15.11000
C          7.06600        5.99800       13.74500
H          7.82000        6.12500       14.35800
H          6.98200        6.78200       13.16300
H          7.22400        5.20100       13.19600
C          4.59900        5.61800       13.59500
H          3.77300        5.51900       14.11400
H          4.74600        4.81100       13.05900
H          4.52200        6.39500       13.00400
C          4.93200       10.66300       14.93400
H          4.81400       11.41500       15.58300
C          6.10400       11.00400       14.01600
H          6.92200       11.08900       14.54800
H          5.92300       11.85000       13.55800
H          6.21800       10.29100       13.35500
C          3.64500       10.53700       14.11000
H          2.89500       10.32800       14.70400
H          3.74900        9.82000       13.45100
H          3.46900       11.38400       13.64900
C          5.15400       14.37900       21.38900
C          6.23900       15.24000       21.05700
C          6.44200       16.38600       21.81200
H          7.18900       16.93600       21.60600
C          5.60900       16.76700       22.84800
C          4.49500       15.99800       23.07700
H          3.87700       16.28200       23.74100
C          4.22900       14.81500       22.37700
C          7.23900       15.04600       19.91500
H          6.88200       14.33600       19.30800
C          8.61900       14.59300       20.41800
H          8.52400       13.76600       20.93300
H          9.00300       15.29100       20.98800
H          9.21000       14.43500       19.65400
C          7.40600       16.33500       19.09400
H          6.53000       16.62600       18.76200
H          8.00300       16.16600       18.33600
H          7.78800       17.03600       19.66200
C          5.90400       18.00500       23.67800
H          5.21200       18.05700       24.39900
C          5.79700       19.26800       22.84900
H          4.91200       19.30900       22.43100
H          6.48700       19.26300       22.15500
H          5.92100       20.05000       23.42900
C          7.25700       17.91100       24.35400
H          7.41900       18.72500       24.87700
H          7.95700       17.81500       23.67300
H          7.27200       17.13300       24.95000
C          2.91300       14.13800       22.72400
H          2.80300       13.34600       22.12400
C          1.74300       15.08500       22.47700
H          1.75900       15.38900       21.54700
H          1.81700       15.85900       23.07500
H          0.90100       14.61600       22.65400
C          2.88300       13.64100       24.18000
H          2.02000       13.21200       24.36000
H          3.00500       14.39900       24.78600
H          3.60500       12.99200       24.31800
C          4.68600       11.58800       22.24700
C          3.58700       10.68200       22.33700
C          3.60500        9.71200       23.33300
H          2.88300        9.09600       23.37400
C          4.61300        9.60200       24.26100
C          5.60400       10.55700       24.23700
H          6.27000       10.53600       24.91600
C          5.67800       11.55700       23.26200
C          2.35200       10.69600       21.44700
H          2.45200       11.45600       20.80600
C          2.20800        9.41800       20.62500
H          3.02600        9.26800       20.10600
H          1.44600        9.50600       20.01500
H          2.05900        8.65700       21.22700
C          1.08100       10.93900       22.25100
H          1.18300       11.75300       22.78700
H          0.91800       10.17500       22.84400
H          0.32200       11.04200       21.63800
C          4.69700        8.43700       25.23700
H          5.33700        8.69500       25.96100
C          3.39200        8.07500       25.89200
H          3.53400        7.32600       26.51000
H          2.74300        7.81400       25.20700
H          3.05100        8.84800       26.39000
C          5.27200        7.24700       24.52900
H          6.12600        7.49500       24.11300
H          4.64800        6.94600       23.83400
H          5.42000        6.52300       25.17300
C          6.83300       12.55100       23.43300
H          6.83300       13.16200       22.64100
C          8.19600       11.86900       23.49900
H          8.32600       11.31800       22.69800
H          8.23900       11.30000       24.29700
H          8.90100       12.54800       23.54300
C          6.62900       13.40900       24.69300
H          5.75400       13.84700       24.65100
H          7.33300       14.08800       24.74400
H          6.67000       12.83600       25.48800
C          0.97700        6.75800       15.55300
C          1.83600        7.63000       16.29000
H          2.76600        7.47400       16.02200
H          1.73700        7.45000       17.24900
H          1.59300        8.56100       16.10500
