97
C:\Users\Javier\OneDrive - Universitat de Barcelona\Tesi\4 - Contribucions\Treballs\3-PhD\chapter_1\cif\pc2p\AVOBAO.pc2p.pdb
Rh         8.29700        4.24400        8.37100
P          6.12400        4.51800        8.99000
P          8.08700        2.24900        9.26100
O          5.43500       10.61800        7.13800
N          8.67900        6.07900        7.40700
C          4.97500        4.03800        7.64300
C          3.63200        3.70700        7.85900
H          3.26500        3.78800        8.73100
C          2.82500        3.26000        6.81400
H          1.92000        3.02500        6.97600
C          3.35300        3.16000        5.53700
H          2.81200        2.84500        4.82300
C          4.64800        3.51300        5.30400
H          4.99800        3.47100        4.42300
C          5.46100        3.93500        6.35300
H          6.36800        4.15700        6.17600
C          5.32100        6.01900        9.67400
C          5.59700        6.40800       10.97900
H          6.15800        5.86900       11.52400
C          5.05600        7.58300       11.48800
H          5.23500        7.82800       12.38700
C          4.26600        8.39300       10.70800
H          3.91200        9.20200       11.06100
C          3.99100        8.02100        9.41500
H          3.44100        8.57100        8.86900
C          4.51800        6.84600        8.90400
H          4.32200        6.60000        8.00800
C          5.73600        3.23700       10.27700
H          6.11300        3.50700       11.15200
H          4.75500        3.13500       10.37600
C          6.35500        1.92600        9.82200
H          5.82500        1.54200        9.07800
H          6.35800        1.27600       10.57000
C          8.37900        0.83800        8.11500
C          9.10600       -0.29800        8.40600
H          9.44600       -0.43100        9.28400
C          9.34500       -1.25000        7.42100
H          9.84200       -2.03300        7.63200
C          8.87300       -1.06900        6.15500
H          9.04800       -1.71600        5.48200
C          8.14900        0.05100        5.85800
H          7.81200        0.18000        4.97900
C          7.90300        0.99900        6.84000
H          7.39500        1.77300        6.62500
C          9.10900        1.87900       10.74500
C          8.92800        0.77400       11.56400
H          8.24000        0.15000       11.36100
C          9.72200        0.56500       12.66400
H          9.58200       -0.19800       13.21200
C         10.72000        1.45900       12.97400
H         11.26900        1.31500       13.73600
C         10.92400        2.56800       12.17500
H         11.61200        3.18900       12.38600
C         10.11700        2.76900       11.06300
H         10.26000        3.53100       10.51200
C          9.73700        6.08900        6.64100
C         10.60000        4.90500        6.70800
C         10.15100        3.85200        7.54300
C         11.01000        2.74700        7.59800
H         10.74800        2.00900        8.13400
C         12.21700        2.65700        6.92500
C         12.63700        3.72700        6.15800
H         13.47400        3.69200        5.71100
C         11.83000        4.85400        6.04500
H         12.11400        5.59100        5.51700
C         13.07800        1.41400        7.05400
H         13.88500        1.51800        6.50900
H         12.57200        0.63500        6.74300
H         13.33000        1.28800        7.99200
C         10.07600        7.22000        5.72700
C         10.17600        6.97100        4.36100
H         10.01300        6.09700        4.02900
C         10.51100        7.98800        3.48700
H         10.55800        7.80700        2.55700
C         10.77900        9.26900        3.94300
C         10.67700        9.50800        5.31000
H         10.84800       10.37900        5.64400
C         10.32800        8.50100        6.19500
H         10.26200        8.68700        7.12300
C         11.14600       10.37500        2.98900
H         11.29200       11.20300        3.49100
H         10.41800       10.50800        2.34600
H         11.96700       10.13400        2.50900
C          7.80900        7.21800        7.38700
C          7.78200        8.10100        8.45000
H          8.30500        7.91800        9.22200
C          7.00800        9.24800        8.41000
H          7.01200        9.85500        9.14200
C          6.23400        9.50000        7.29900
C          6.21200        8.60000        6.23900
H          5.66300        8.76500        5.48200
C          6.99700        7.46500        6.29500
H          6.97900        6.84600        5.57500
C          5.45300       11.57900        8.19000
H          4.85300       12.32000        7.96500
H          6.36500       11.91900        8.30400
H          5.15300       11.15800        9.02200
