226
C:\Users\Javier\OneDrive - Universitat de Barcelona\Tesi\4 - Contribucions\Treballs\3-PhD\chapter_1\cif\pc2p\AYITEH.pc2p.pdb
Pd         2.50900       15.79300       14.98800
Pd         9.62500       21.49800       14.56600
Ge         5.15600       13.78000       14.31900
Ge        12.27700       23.48700       15.31500
S          4.86300       15.92400       14.60200
S         11.97300       21.34000       14.98600
P          0.30800       15.57100       15.26500
P          2.10900       18.09800       15.11900
P          7.42400       21.75000       14.25900
P          9.23700       19.21500       14.27900
Si         4.64600       11.54200       12.22200
Si         4.77600       14.43200       11.28300
Si         8.15900       12.82700       14.57100
Si         6.24800       12.72700       16.97700
Si        13.11500       24.46000       12.56400
Si        11.82100       25.64900       17.48600
Si        15.22200       24.57800       14.77300
Si        12.16300       22.70400       18.31400
O          3.76900       13.04900       15.17300
O         10.80700       24.25200       14.61300
N          5.02000       13.21800       12.52900
N          6.57700       13.09300       15.28100
N         13.60800       24.22200       14.23600
N         12.27300       23.97800       17.11300
C          2.54700       13.63000       14.88800
H          1.87500       13.27600       15.52300
H          2.27100       13.35300       13.97900
C         -0.46200       14.39900       14.13000
C         -1.04200       13.22700       14.49300
H         -1.14000       13.02500       15.41700
C         -1.49900       12.31500       13.54400
H         -1.90800       11.50100       13.81800
C         -1.35200       12.60400       12.20200
H         -1.67800       11.99400       11.55200
C         -0.74500       13.75500       11.80200
H         -0.63300       13.93500       10.87600
C         -0.28700       14.66600       12.74900
H          0.14200       15.46600       12.47000
C         -0.21000       15.10800       16.95400
C         -1.57300       14.97500       17.26800
H         -2.23600       15.11600       16.60200
C         -1.93800       14.63700       18.56500
H         -2.85500       14.51500       18.77900
C         -0.98400       14.47700       19.53400
H         -1.24800       14.24600       20.41600
C          0.36400       14.64700       19.24900
H          1.01700       14.56300       19.93400
C          0.74800       14.94800       17.93000
H          1.66900       15.04300       17.71400
C          2.14700       19.02600       13.53500
C          1.09800       19.84600       13.07700
H          0.30700       19.94400       13.59400
C          1.22800       20.51200       11.86400
H          0.51800       21.06200       11.55400
C          2.37300       20.38800       11.10800
H          2.45000       20.84800       10.28100
C          3.41300       19.58300       11.55800
H          4.21100       19.51900       11.04700
C          3.29700       18.87600       12.74900
H          3.99300       18.29200       13.02600
C          3.07300       19.10900       16.28200
C          2.81900       20.45600       16.47200
H          2.16600       20.88900       15.93400
C          3.50300       21.18600       17.43700
H          3.30000       22.10200       17.58000
C          4.49000       20.55200       18.19200
H          4.96700       21.04500       18.85200
C          4.78100       19.21000       17.98700
H          5.45800       18.78400       18.49800
C          4.06800       18.49200       17.02600
H          4.26400       17.57300       16.88100
C         -0.48500       17.20700       14.99700
H         -0.53700       17.40700       14.03000
H         -1.40300       17.20500       15.36800
C          0.36100       18.24500       15.70000
H          0.31900       18.10600       16.68000
H          0.01500       19.15100       15.50200
C          2.90700       11.36800       11.52800
H          2.25400       11.62000       12.21400
H          2.75300       10.43700       11.25900
H          2.80600       11.95200       10.74800
C          5.86700       10.73400       11.02700
H          5.78700       11.15500       10.14500
H          5.66600        9.77800       10.95300
H          6.77900       10.85200       11.36300
C          4.72500       10.46800       13.74300
H          5.63200       10.49400       14.11400
H          4.49800        9.54500       13.50100
H          4.08800       10.79800       14.40900
C          3.02900       15.15600       11.33400
H          2.38400       14.47300       11.06100
H          2.97500       15.92100       10.72100
H          2.82600       15.45400       12.24600
C          5.97900       15.85300       11.29100
H          6.08100       16.19000       12.20400
H          5.64100       16.56800       10.71300
H          6.84800       15.54700       10.95700
C          5.00700       13.65000        9.58700
H          5.88200       13.21200        9.54800
H          4.95700       14.34500        8.89900
H          4.30200       12.98800        9.43600
C          8.23300       13.47300       12.83100
H          7.62600       12.95300       12.26300
H          9.14800       13.39000       12.49100
H          7.96400       14.41500       12.81900
C          9.51200       13.75500       15.44800
H          9.19200       14.65100       15.69000
H         10.28900       13.83700       14.85700
H          9.76700       13.27000       16.26000
C          8.59700       10.99700       14.52900
H          8.55300       10.62900       15.43700
H          9.50500       10.88600       14.17500
H          7.96200       10.52400       13.95300
C          5.14100       13.98500       17.79100
H          5.42100       14.88600       17.52500
H          5.20400       13.89600       18.76300
H          4.21400       13.83700       17.50800
C          7.82500       12.70200       18.01100
H          8.45700       12.05700       17.62800
H          7.60900       12.44000       18.93000
H          8.23100       13.59500       18.01100
C          5.49800       11.03800       17.20700
H          4.61400       11.01300       16.78700
H          5.40900       10.84800       18.16400
H          6.07600       10.36400       16.79200
C          9.65900       23.57700       14.91200
H          8.92300       23.98300       14.38900
H          9.45600       23.72800       15.86900
C          6.64400       22.79600       15.52700
C          6.96600       22.51300       16.86500
H          7.48000       21.74400       17.07700
C          6.53300       23.35600       17.88100
H          6.75700       23.16300       18.78300
C          5.78600       24.46700       17.58600
H          5.49200       25.04100       18.28400
C          5.45800       24.74900       16.27800
H          4.93100       25.51400       16.07900
C          5.89000       23.93300       15.25600
H          5.67000       24.15000       14.35800
C          6.90200       22.40400       12.63700
C          7.89000       22.88800       11.76600
H          8.80600       22.86900       12.01800
C          7.51100       23.39300       10.53400
H          8.17500       23.72300        9.94100
C          6.18700       23.42500       10.15300
H          5.94100       23.77800        9.30600
C          5.22000       22.94600       11.01400
H          4.30400       22.98000       10.75800
C          5.56900       22.41600       12.24000
H          4.90000       22.05900       12.81300
C          9.21100       18.25200       15.83800
C          8.13400       17.43700       16.20500
H          7.39300       17.32200       15.62100
C          8.16600       16.79400       17.45300
H          7.43900       16.24100       17.71400
C          9.22900       16.95400       18.29400
H          9.24100       16.49700       19.12700
C         10.27500       17.75900       17.94800
H         11.00100       17.87500       18.54900
C         10.28300       18.41900       16.70800
H         11.01300       18.97500       16.46400
C         10.24800       18.25100       13.08500
C         10.02000       16.91300       12.83700
H          9.35700       16.44800       13.33200
C         10.73700       16.25500       11.88800
H         10.55400       15.34000       11.71300
C         11.73100       16.89900       11.17100
H         12.23100       16.42400       10.51600
C         11.99300       18.22100       11.41000
H         12.66500       18.67800       10.91700
C         11.24000       18.89700       12.40900
H         11.43000       19.80700       12.60500
C          6.62700       20.11100       14.38300
H          6.53600       19.84500       15.33300
H          5.72500       20.13700       13.97700
C          7.52800       19.09500       13.62500
H          7.52300       19.29500       12.65400
H          7.18300       18.17400       13.75300
C         12.03000       23.10300       11.89600
H         12.48800       22.24300       11.99000
H         11.84200       23.27200       10.94900
H         11.18900       23.08200       12.39700
C         14.62000       24.48500       11.40500
H         15.19900       25.23900       11.64000
H         14.31700       24.58300       10.47900
H         15.11800       23.64800       11.49900
C         12.20600       26.05400       12.32600
H         11.36100       26.02600       12.82300
H         12.01800       26.18400       11.37300
H         12.75500       26.79700       12.65600
C         12.20600       26.81700       16.07300
H         13.15200       26.73400       15.83000
H         12.01700       27.73900       16.35000
H         11.64900       26.58800       15.29900
C          9.97700       25.79700       17.86500
H          9.46100       25.62800       17.05000
H          9.78200       26.70000       18.19300
H          9.73100       25.14000       18.54900
C         12.73900       26.37500       18.95400
H         12.20800       26.24600       19.76700
H         12.88400       27.33300       18.80700
H         13.60300       25.92400       19.05200
C         15.68900       26.33100       14.39100
H         15.32600       26.58300       13.51700
H         16.66600       26.41400       14.37600
H         15.32200       26.92400       15.08100
C         15.46500       24.33600       16.59800
H         14.86200       24.93200       17.08900
H         16.39300       24.54300       16.83600
H         15.26800       23.40600       16.83400
C         16.50100       23.44000       13.96100
H         16.09400       22.56700       13.78000
H         17.26500       23.32300       14.56400
H         16.80700       23.83800       13.12000
C         12.33500       23.36700       20.06800
H         13.14400       23.91800       20.13100
H         12.40100       22.61900       20.69500
H         11.55200       23.91300       20.29000
C         13.53800       21.46800       18.16000
H         13.68200       21.25600       17.21300
H         13.29900       20.65100       18.64500
H         14.36000       21.84400       18.53900
C         10.49900       21.84400       18.30400
H          9.79300       22.49600       18.49800
H         10.49200       21.14000       18.98700
H         10.34300       21.44500       17.42300
