95
C:\Users\Javier\OneDrive - Universitat de Barcelona\Tesi\4 - Contribucions\Treballs\3-PhD\chapter_1\cif\pc2p\AYUSOC.pc2p.pdb
Ru        -0.75500        2.92200        4.04200
P         -0.94800        1.80900        2.08300
C         -2.60600        1.25400        1.51200
C         -2.74700        0.37200        0.43800
C         -3.99100       -0.14700        0.10000
C         -5.11000        0.22900        0.82500
C         -4.99000        1.12900        1.86300
C         -3.74000        1.63200        2.21400
C         -0.24800        2.51200        0.54800
C          1.13600        2.59800        0.38000
C          1.67300        3.11700       -0.79500
C          0.84300        3.58900       -1.79800
C         -0.53300        3.54600       -1.62900
C         -1.07200        3.01000       -0.46800
C         -0.11400        0.18000        2.29600
C         -0.68200       -0.46800        3.56400
P         -0.97300        0.81700        4.88600
C         -2.61200        0.38700        5.60400
C         -3.67000       -0.14500        4.86300
C         -4.93500       -0.28600        5.41600
C         -5.18500        0.12000        6.71400
C         -4.14700        0.63100        7.47200
C         -2.87800        0.75200        6.92700
C          0.10700        0.24200        6.24800
C          1.01100        1.09600        6.86500
C          1.78700        0.63700        7.93200
C          1.66800       -0.66900        8.37300
C          0.78300       -1.53300        7.74900
C          0.00600       -1.08100        6.69300
C          1.19000        2.58400        3.85400
C          2.41300        2.50600        3.73500
C          3.76900        2.46600        3.54000
C          4.97500        2.44500        3.34700
Si         6.74100        2.26100        2.93900
C          7.04600        0.45800        2.65200
C          7.14300        3.23000        1.40700
C          7.81400        2.87300        4.32800
C         -0.72000        5.12700        3.69100
C          0.03200        5.85000        2.60600
C         -2.08500        4.69800        3.62500
C         -2.99000        4.96700        2.45900
C         -2.45200        4.17300        4.89500
C         -3.83800        3.81800        5.35500
C         -1.30100        4.29000        5.75900
C         -1.30600        4.04800        7.23800
C         -0.25500        4.89900        5.01600
C          1.07600        5.35400        5.53700
H         -1.99900        0.14400       -0.06200
H         -4.06600       -0.78000       -0.61800
H         -5.97800       -0.13900        0.57600
H         -5.71700        1.44300        2.36900
H         -3.66600        2.23200        2.93600
H          1.71800        2.31300        1.05900
H          2.60300        3.13700       -0.89900
H          1.15400        3.93100       -2.56500
H         -1.08700        3.90700       -2.30600
H         -1.96100        2.97100       -0.37600
H         -0.27200       -0.37500        1.48100
H          0.81600        0.34600        2.39600
H         -0.11700       -1.11700        3.93000
H         -1.51700       -0.92500        3.36900
H         -3.52700       -0.46600        3.94600
H         -5.66000       -0.68600        4.86200
H         -6.04700       -0.00400        7.09800
H         -4.28400        0.90400        8.36400
H         -2.15300        1.06100        7.44400
H          1.10200        1.99400        6.53100
H          2.37800        1.20000        8.29500
H          2.23200       -0.92000        9.03800
H          0.67900       -2.42200        8.03900
H         -0.56200       -1.70700        6.27800
H          7.84600        0.28000        2.39900
H          6.39800        0.08400        2.01100
H          6.84400        0.00300        3.44500
H          8.02700        3.06300        1.07000
H          6.94700        4.00400        1.39500
H          6.55600        2.84200        0.78200
H          8.69800        2.81800        4.11200
H          7.59900        2.22600        4.92100
H          7.63300        3.66800        4.64500
H         -0.07900        6.82300        2.69300
H         -0.21600        5.61200        1.73000
H          0.95500        5.71500        2.67500
H         -3.06600        5.90600        2.39600
H         -3.87500        4.57100        2.56700
H         -2.66900        4.58500        1.66300
H         -4.22800        4.51500        5.82300
H         -3.96800        2.99300        5.67500
H         -4.51500        3.70300        4.57500
H         -1.59300        4.78600        7.67900
H         -0.50400        3.86800        7.59700
H         -1.85100        3.33900        7.51400
H          1.06200        6.28400        5.66800
H          1.77400        5.21100        4.91900
H          1.27200        4.99500        6.37400
