83
C:\Users\Javier\OneDrive - Universitat de Barcelona\Tesi\4 - Contribucions\Treballs\3-PhD\chapter_1\cif\pc2p\AYUTAP.pc2p.pdb
Ru         5.39500        2.35800        3.79000
C          3.76600        1.75100        2.77100
C          2.81500        1.51800        2.10000
C          1.74700        1.39300        1.22600
C          0.83300        1.33600        0.46200
P          6.17800        2.95000        1.73300
C          7.53300        4.18100        1.66400
C          8.83700        3.83300        2.00800
C          9.82400        4.80300        2.13900
C          9.52000        6.13200        1.94400
C          8.23900        6.49800        1.58000
C          7.26500        5.53200        1.43100
C          4.97200        3.65600        0.53500
C          3.82800        4.29500        0.99700
C          2.87000        4.79100        0.12700
C          3.04200        4.64800       -1.24400
C          4.17300        4.04000       -1.71800
C          5.12200        3.55900       -0.84400
C          6.86200        1.45200        0.86300
C          6.21500        0.18700        1.42500
P          6.26200        0.34500        3.25400
C          8.03300       -0.02900        3.57500
C          8.61100       -1.25500        3.18600
C          9.96500       -1.46300        3.35900
C         10.75300       -0.48400        3.90900
C         10.21400        0.72500        4.28000
C          8.85000        0.95400        4.10500
C          5.41000       -1.12900        3.93000
C          4.14600       -1.48000        3.46500
C          3.46100       -2.55100        4.03800
C          4.01500       -3.25500        5.09100
C          5.24800       -2.89200        5.57000
C          5.94900       -1.85600        4.98900
C          4.50600        2.32900        5.81900
C          3.61400        1.25900        6.36300
C          5.92100        2.41000        5.96000
C          6.74700        1.43100        6.76500
C          6.37600        3.62300        5.39900
C          7.74800        4.23500        5.47300
C          5.21800        4.33700        4.91000
C          5.22100        5.73500        4.39700
C          4.07100        3.53100        5.18100
C          2.64300        3.90400        4.92400
H          0.06200        1.25300       -0.17000
H          9.03800        2.87600        2.16000
H         10.74700        4.54200        2.40300
H         10.22100        6.80300        2.05400
H          8.00800        7.44200        1.42900
H          6.36200        5.76100        1.14400
H          3.70000        4.41600        1.95600
H          2.07700        5.23900        0.50600
H          2.32500        4.97700       -1.84800
H          4.33900        3.96700       -2.67200
H          5.91200        3.12000       -1.22800
H          6.68300        1.50800       -0.09000
H          7.81000        1.40100        0.96900
H          6.69400       -0.60200        1.14700
H          5.31300        0.09800        1.11300
H          8.03800       -1.93400        2.79800
H         10.35100       -2.30900        3.09800
H         11.68900       -0.63300        4.02500
H         10.77800        1.40200        4.67500
H          8.46800        1.81600        4.32400
H          3.74200       -0.98000        2.73700
H          2.56900       -2.78100        3.69400
H          3.52100       -3.98700        5.49500
H          5.63500       -3.39000        6.30900
H          6.82800       -1.60700        5.30500
H          4.16300        0.52300        6.65500
H          3.05600        0.93500        5.65000
H          3.09900        1.56500        7.09500
H          6.40800        1.41800        7.67000
H          7.64800        1.73000        6.79800
H          6.68500        0.54500        6.41500
H          8.40300        3.58100        5.70800
H          7.77700        4.92700        6.14500
H          7.99500        4.63200        4.63700
H          5.31400        6.35400        5.15000
H          4.39200        5.95400        3.96900
H          5.93300        5.89900        3.80500
H          2.62000        4.81600        4.60300
H          2.15300        3.87600        5.74200
H          2.23600        3.35200        4.25300
