110
C:\Users\Javier\OneDrive - Universitat de Barcelona\Tesi\4 - Contribucions\Treballs\3-PhD\chapter_1\cif\pc2p\BAJBAS.pc2p.pdb
C          9.73000        1.75900        9.26700
C          8.51600        2.48600        8.78600
C          7.54500        2.42400        9.84700
C          6.05000        2.49000       10.00500
H          5.59900        1.83100        9.42100
H          5.70800        3.39500        9.79300
C          5.82700        2.14500       11.51800
C          7.15500        1.51700       12.04200
H          7.39800        1.88600       12.92800
H          7.08000        0.53200       12.11200
C          8.16800        1.90600       11.00100
C          9.54900        1.62100       10.74100
C          8.27000        2.72200        7.34900
C          7.04400        2.36500        6.75600
H          6.36000        1.97700        7.29200
C          6.81800        2.57500        5.39500
H          5.98600        2.32000        5.01000
C          7.79700        3.15000        4.60100
H          7.63800        3.30600        3.67700
C          9.02600        3.50100        5.17500
H          9.70200        3.89700        4.63900
C          9.26100        3.27200        6.52700
H         10.10700        3.49200        6.89700
C          4.65700        1.16300       11.69800
C          3.84400       -1.02800       11.26400
H          3.00500       -0.73000       10.83100
H          3.66300       -1.18200       12.22600
C          4.34400       -2.29000       10.61900
H          4.56200       -2.11300        9.68100
H          3.64900       -2.98000       10.67000
H          5.14600       -2.60100       11.08800
C          5.40500        3.37600       12.32500
C          5.27100        4.23600       14.57100
H          4.44600        3.92100       15.01900
H          5.07400        5.08900       14.11000
C          6.36400        4.43100       15.57800
H          6.59400        3.57000       15.98200
H          6.05900        5.04900       16.27400
H          7.15300        4.80500       15.13300
C         10.47300        0.96500       11.68700
C         10.22300        1.00900       13.06800
H          9.45800        1.46900       13.38700
C         11.08100        0.38500       13.98000
H         10.88700        0.41700       14.90800
C         12.21600       -0.27700       13.53300
H         12.80400       -0.69800       14.15100
C         12.47900       -0.31900       12.16300
H         13.25600       -0.76900       11.84900
C         11.62400        0.29100       11.24600
H         11.82200        0.25000       10.31600
C          7.91300        7.12200       11.33800
C          7.11000        6.71900       12.40300
H          6.78700        5.82700       12.43400
C          6.77500        7.60300       13.42400
H          6.21500        7.31800       14.13600
C          7.26300        8.90200       13.39700
H          7.04000        9.50900       14.09200
C          8.07500        9.31200       12.35500
H          8.41100       10.20000       12.34300
C          8.40500        8.43400       11.32100
H          8.96100        8.72500       10.60900
C          6.74300        6.11000        8.92900
C          6.79700        5.66200        7.60400
H          7.58600        5.24200        7.28300
C          5.70800        5.82400        6.75200
H          5.75500        5.50700        5.85900
C          4.55100        6.45000        7.20400
H          3.81600        6.57600        6.61600
C          4.47900        6.89200        8.52500
H          3.68900        7.31200        8.84200
C          5.56500        6.71900        9.38500
H          5.50500        7.01400       10.28700
C          9.52100        6.79500        8.98100
H          9.57300        6.40000        8.07600
H          9.29500        7.75500        8.89200
C         10.86300        6.63400        9.70800
H         10.83900        7.11100       10.57600
H         11.59300        7.01900        9.16100
C         12.51900        4.79600       11.22200
C         12.57400        3.81100       12.20000
H         11.85300        3.19900       12.29600
C         13.68600        3.71300       13.04800
H         13.72400        3.03000       13.70600
C         14.73200        4.61600       12.92000
H         15.49100        4.54400       13.48700
C         14.67300        5.62600       11.96500
H         15.37700        6.25900       11.89600
C         13.58000        5.70500       11.11100
H         13.55200        6.38100       10.44500
C         12.15000        4.37100        8.50600
C         12.96200        3.24400        8.57200
H         12.95800        2.70400        9.35400
C         13.77800        2.90500        7.50100
H         14.35200        2.15000        7.56400
C         13.75600        3.66600        6.33900
H         14.30500        3.42500        5.60100
C         12.92800        4.78400        6.25600
H         12.91100        5.30300        5.46100
C         12.12800        5.14000        7.33700
H         11.56700        5.90400        7.28000
C          9.25800        4.36600       12.32500
O         10.69300        1.39100        8.57500
O          3.65400        1.41700       12.30700
O          4.89100       -0.01000       11.09900
O          4.80700        4.31500       11.85600
O          5.73000        3.24300       13.61200
O          9.33200        4.62800       13.44600
P          8.24100        5.93200        9.97200
P         11.16400        4.83900        9.98700
Ru         9.11600        3.83600       10.53600
