75
C:\Users\Javier\OneDrive - Universitat de Barcelona\Tesi\4 - Contribucions\Treballs\3-PhD\chapter_1\cif\pc2p\BEFSAJ.pc2p.pdb
Te        10.16700        8.77300       14.21400
Te         9.39000        9.65300       17.47800
Pd         9.62500        7.31900       16.28400
P          9.72000        5.21300       15.39900
P          9.00700        6.29400       18.22500
N         10.24700        6.03400       10.08600
N         13.36000        9.24000       20.36100
C         10.19500        7.52000       12.48500
C         11.35700        6.89200       12.04300
H         12.16000        6.96300       12.54200
C         11.32700        6.16200       10.86100
H         12.12500        5.72700       10.58600
C          9.14200        6.64700       10.51600
H          8.35900        6.57400        9.98200
C          9.06000        7.38400       11.68900
H          8.24000        7.79100       11.94500
C         11.11200        9.49400       18.68500
C         11.11900       10.03100       19.96800
H         10.36200       10.49900       20.29900
C         12.25000        9.87200       20.75800
H         12.23500       10.23400       21.63700
C         13.34500        8.75400       19.11500
H         14.12700        8.31300       18.80200
C         12.26700        8.85000       18.24800
H         12.31600        8.48200       17.37300
C         11.40100        4.58400       15.12200
C         12.46600        5.47700       15.11500
H         12.30200        6.40800       15.20300
C         13.77400        5.01200       14.98100
H         14.49700        5.62600       14.97500
C         14.01400        3.65400       14.85500
H         14.90500        3.33700       14.75900
C         12.95900        2.75700       14.86800
H         13.12900        1.82700       14.78400
C         11.65600        3.21500       15.00300
H         10.93400        2.59600       15.01300
C          8.67500        4.76900       13.97800
C          9.12000        4.02300       12.88500
H         10.03400        3.76700       12.81900
C          8.21500        3.65700       11.89200
H          8.51800        3.15300       11.14600
C          6.88300        4.01800       11.97600
H          6.27300        3.75300       11.29800
C          6.43900        4.76900       13.05900
H          5.52600        5.02100       13.12000
C          7.33600        5.15000       14.04800
H          7.03300        5.67400       14.77900
C          9.05200        4.08100       16.68800
H          8.06100        4.07500       16.64400
H          9.37200        3.16000       16.51900
C          9.49600        4.52800       18.07600
H         10.47800        4.43000       18.17300
H          9.05200        3.98400       18.77300
C          7.19300        6.20600       18.27800
C          6.43600        6.88800       17.32900
H          6.86800        7.43700       16.68400
C          5.04900        6.76500       17.32400
H          4.53500        7.21100       16.65900
C          4.41700        5.99500       18.28400
H          3.47000        5.93300       18.29600
C          5.16600        5.31600       19.22800
H          4.73000        4.78100       19.88200
C          6.55300        5.41000       19.22900
H          7.06500        4.93500       19.87500
C          9.48600        6.79200       19.89700
C          8.65300        7.62400       20.64500
H          7.83300        7.92900       20.27600
C          9.01600        8.00700       21.92100
H          8.43800        8.56400       22.42900
C         10.22000        7.58700       22.46700
H         10.46700        7.85700       23.34300
C         11.05900        6.77200       21.72900
H         11.88300        6.48300       22.10100
C         10.69900        6.37100       20.44400
H         11.27900        5.81300       19.94000
