145
C:\Users\Javier\OneDrive - Universitat de Barcelona\Tesi\4 - Contribucions\Treballs\3-PhD\chapter_1\cif\pc2p\BENHOU.pc2p.pdb
Ru         1.97300        1.06600        5.22800
P          2.74200        3.04600        6.18300
P          0.65700        2.57400        3.97300
C          2.73600       -0.01600        3.33500
H          2.51300        0.51700        2.63500
C          3.98400        0.41000        4.20900
H          4.45300        1.16000        3.97000
B          1.59900       -0.99400        4.18800
B          2.74500       -1.67800        2.99400
H          2.35500       -1.97200        2.04700
B          4.25800       -0.77900        2.98700
H          4.76100       -0.50100        2.16600
B          3.85500       -0.16800        5.83600
B          2.33500       -1.18300        5.84300
B          2.55900       -2.43800        4.58200
H          2.02800       -3.43900        4.62000
B          4.16500       -2.31100        3.84000
H          4.77700       -3.27000        3.52900
B          4.96000       -0.92100        4.59600
H          6.04700       -0.75900        4.75000
B          3.92800       -1.97000        5.57200
H          4.39900       -2.60100        6.38200
C          1.62300        4.45100        5.71700
H          0.81300        4.44100        6.28500
H          2.09000        5.31500        5.85400
C          1.23600        4.29700        4.25400
H          2.01700        4.48800        3.67500
H          0.51600        4.93600        4.02500
C          4.35100        3.70800        5.54300
C          4.54500        3.73500        4.16800
H          3.89900        3.32700        3.60400
C          5.65600        4.34300        3.59500
H          5.76100        4.35400        2.65000
C          6.60400        4.92600        4.40800
H          7.35100        5.37000        4.02500
C          6.47000        4.86700        5.76300
H          7.14200        5.24800        6.31800
C          5.34600        4.24800        6.35400
H          5.26900        4.20300        7.29900
C          2.85800        3.25800        7.99100
C          2.68600        2.17700        8.85400
H          2.47400        1.31900        8.50400
C          2.82300        2.34900       10.22200
H          2.70100        1.60900       10.80600
C          3.14000        3.59900       10.74500
H          3.24500        3.71100       11.68100
C          3.30100        4.67800        9.89000
H          3.52300        5.53400       10.24000
C          3.13700        4.51400        8.53300
H          3.21700        5.26500        7.95500
C          0.77500        2.40200        2.14100
C         -0.22100        1.76500        1.38600
H         -1.01700        1.46900        1.81300
C         -0.05900        1.56400        0.02000
H         -0.74200        1.11800       -0.47100
C          1.06900        1.99400       -0.63200
H          1.17000        1.85000       -1.56400
C          2.05600        2.64300        0.09000
H          2.83300        2.96000       -0.35500
C          1.92000        2.83200        1.45600
H          2.61700        3.26200        1.93900
C         -1.16800        2.71000        4.19300
C         -1.82200        3.92100        4.42800
H         -1.31600        4.72100        4.51200
C         -3.21200        3.96400        4.53800
H         -3.64400        4.79200        4.70800
C         -3.95900        2.81800        4.40200
H         -4.90600        2.86000        4.45000
C         -3.32300        1.60100        4.19500
H         -3.83400        0.80500        4.11300
C         -1.94200        1.55400        4.10900
H         -1.51100        0.71600        3.99000
C          0.13600       -1.15000        3.67500
H         -0.06300       -0.74200        2.84000
C         -0.87500       -1.79500        4.27600
H         -0.67100       -2.25800        5.08000
C         -2.27600       -1.85200        3.80700
C         -3.29800       -2.11600        4.71500
H         -3.07700       -2.32300        5.61600
C         -4.62600       -2.08400        4.33300
H         -5.30900       -2.24800        4.97500
C         -4.95800       -1.81800        3.02300
H         -5.87000       -1.80400        2.76000
C         -3.96800       -1.57000        2.08900
H         -4.19700       -1.39000        1.18500
C         -2.63600       -1.58600        2.48500
H         -1.95800       -1.41000        1.84400
C          4.72400        0.41000        7.01300
H          4.39800        0.23100        7.88700
C          5.85100        1.11600        6.96000
H          6.21100        1.28200        6.09600
C          6.60000        1.66600        8.10500
C          7.79400        2.37000        7.88000
H          8.11400        2.47100        6.99300
C          8.51600        2.91700        8.92700
H          9.32100        3.39000        8.75100
C          8.07100        2.77900       10.21800
H          8.56700        3.14900       10.93600
C          6.88400        2.08600       10.46700
H          6.56600        1.99400       11.35700
C          6.17500        1.54000        9.41800
H          5.37300        1.06300        9.59900
C          1.41700       -1.56400        7.13100
H          0.89100       -2.38200        6.90500
C          2.23000       -1.85200        8.43300
H          2.93400       -2.51800        8.23100
H          2.67800       -1.01800        8.72400
C          1.37400       -2.37400        9.57900
C          1.06000       -3.71700        9.67200
H          1.43900       -4.32900        9.05300
C          0.20100       -4.18900       10.65600
H          0.01600       -5.11800       10.72200
C         -0.38800       -3.28900       11.55100
H         -1.02100       -3.59500       12.19000
C         -0.04900       -1.97000       11.49600
H         -0.41800       -1.36300       12.12800
C          0.83100       -1.50300       10.53100
H          1.06800       -0.58400       10.51500
C          0.46500       -0.42000        7.25900
C         -0.83500       -0.11800        7.59600
C         -2.02800       -0.88200        7.94800
C         -1.96600       -2.21900        8.36100
H         -1.12000       -2.64100        8.45800
C         -3.12400       -2.93200        8.62700
H         -3.07000       -3.83200        8.92900
C         -4.36600       -2.32700        8.45100
H         -5.16100       -2.82600        8.59400
C         -4.44300       -0.99200        8.06800
H         -5.28900       -0.57200        7.97100
C         -3.28200       -0.27400        7.82500
H         -3.33800        0.64100        7.57400
C          0.65100        0.86000        6.60000
C         -0.73800        1.34300        7.19600
H         -1.38900        1.56800        6.47100
C         -0.76600        2.36800        8.30800
C         -0.49300        2.03300        9.62300
H         -0.33600        1.12400        9.85000
C         -0.44900        2.99800       10.61200
H         -0.25100        2.75100       11.50900
C         -0.69400        4.32100       10.29900
H         -0.63500        4.98900       10.97100
C         -1.02500        4.66400        9.01300
H         -1.22300        5.56700        8.80100
C         -1.07300        3.70200        8.02400
H         -1.31900        3.94800        7.14000
