141
C:\Users\Javier\OneDrive - Universitat de Barcelona\Tesi\4 - Contribucions\Treballs\3-PhD\chapter_1\cif\pc2p\BERPOF.pc2p.pdb
Ru         1.10500        5.58400       13.94800
C          0.61400        3.54600       11.04400
C          0.45000        3.34200        9.67900
H          0.39400        4.08100        9.11600
C          0.36800        2.09300        9.14100
H          0.26600        1.98000        8.22300
C          0.44200        0.99900        9.97300
H          0.41400        0.14400        9.61100
C          0.55400        1.15200       11.34600
H          0.56800        0.40900       11.90300
C          0.64700        2.44500       11.87400
H          0.73100        2.56400       12.79300
C          1.79200        6.05600       10.54000
C          1.57700        7.33500       10.08800
H          0.81300        7.79700       10.35000
C          2.50000        7.94800        9.23700
H          2.34000        8.81000        8.92900
C          3.63100        7.29400        8.85500
H          4.25200        7.72200        8.30800
C          3.85600        6.01800        9.27000
H          4.61500        5.56400        8.98800
C          2.95300        5.40200       10.11300
H          3.12000        4.53400       10.40300
C         -0.98400        5.88700       11.37500
H         -0.97600        6.85600       11.37000
H         -1.26400        5.57900       10.49900
C         -1.93600        5.38700       12.42200
H         -2.22400        4.49000       12.19000
H         -2.71900        5.95900       12.44300
C         -2.13600        6.61700       15.01400
C         -1.52300        7.63800       15.69000
H         -0.59500        7.67300       15.73300
C         -2.29300        8.63000       16.31700
H         -1.87700        9.31800       16.78700
C         -3.64700        8.58500       16.23600
H         -4.15500        9.25400       16.63500
C         -4.28000        7.54700       15.56600
H         -5.20900        7.51900       15.51700
C         -3.53000        6.57500       14.98100
H         -3.95500        5.86900       14.55200
C         -1.80900        3.81300       14.84700
C         -2.06300        3.72700       16.20500
H         -2.01600        4.49900       16.72200
C         -2.38300        2.52400       16.81600
H         -2.53800        2.49300       17.73200
C         -2.47000        1.38200       16.06700
H         -2.68600        0.57200       16.47200
C         -2.24200        1.43400       14.74300
H         -2.30200        0.65700       14.23400
C         -1.91300        2.64300       14.12000
H         -1.76200        2.65900       13.20200
C          2.03000        4.02400       15.31000
C          1.80300        5.22000       16.06400
C          2.60000        6.24500       15.48700
C          3.27800        5.72200       14.36300
C          2.96500        4.33200       14.27900
C          1.56000        2.66000       15.70000
H          1.51700        2.10100       14.92000
H          0.68700        2.72300       16.09700
H          2.17200        2.27900       16.33300
C          1.05900        5.30700       17.35300
H          0.33200        4.68000       17.34500
H          0.71600        6.19600       17.46500
H          1.65200        5.09900       18.08000
C          2.72800        7.64400       16.05800
H          3.53900        7.70800       16.56700
H          1.97700        7.82600       16.62800
H          2.74700        8.28200       15.34200
C          4.28600        6.47200       13.52800
H          3.86600        7.23900       13.13300
H          4.62000        5.89700       12.83600
H          5.01400        6.75700       14.08600
C          3.63400        3.33000       13.38800
H          4.43700        3.01100       13.80900
H          3.85500        3.74300       12.55100
H          3.04000        2.59100       13.23500
C          0.80300        7.51900       13.44800
C          0.70300        8.69700       13.20700
C          0.52600       10.10500       12.96200
C         -0.20600       10.89900       13.85800
H         -0.55900       10.51300       14.62700
C         -0.41400       12.25000       13.61500
C          0.12600       12.81500       12.47300
H          0.01900       13.72600       12.32300
C          0.81500       12.06500       11.56100
C          1.03300       10.71200       11.82300
H          1.53000       10.20700       11.22100
C         -1.23400       13.06200       14.55400
H         -1.29800       13.96100       14.19400
H         -0.75400       13.12400       15.39500
C         -3.84000       12.79900       13.43200
H         -4.62600       12.23200       13.46900
H         -4.15100       13.71800       13.46500
C         -3.17900       12.58400       12.08400
C         -2.85000       13.69000       11.30900
C         -2.14800       13.53300       10.12100
C         -1.73700       12.24700        9.72600
C         -2.11600       11.12400       10.47500
C         -2.85000       11.29100       11.64300
C         -3.19600       15.10400       11.77100
H         -3.26600       15.12100       12.72800
H         -4.03400       15.36900       11.38400
H         -2.50800       15.71100       11.48800
C         -1.82800       14.71900        9.26300
H         -2.59900       15.28700        9.20200
H         -1.57900       14.42200        8.38500
H         -1.09900       15.20800        9.65400
C         -1.72700        9.74300       10.03400
H         -1.44300        9.23200       10.79600
H         -1.00900        9.79900        9.39900
H         -2.48200        9.31300        9.62500
C         -3.28900       10.09100       12.44000
H         -3.98300        9.62800       11.96400
H         -3.62300       10.37900       13.29400
H         -2.54200        9.50200       12.56900
C         -0.86300       12.08500        8.51700
H         -0.98000       12.86900        7.96000
H         -1.19300       11.32300        8.01300
C          1.29800       12.71200       10.30700
H          2.25900       12.81600       10.37000
H          0.91300       13.60000       10.25600
P          0.70000        5.24500       11.75800
P         -1.14200        5.36500       14.11300
S         -2.88200       12.49900       14.90900
S          0.92300       11.84600        8.78100
H         -0.59800       13.70900       14.89200
H         -1.41200       12.46700       15.29900
H         -3.95100       11.96400       13.91100
H         -4.71400       13.20300       13.31000
H         -1.36200       12.28400        7.71000
H         -0.51500       11.18100        8.45500
H          1.98900       12.11000        9.99000
H          1.77400       13.48600       10.64500
S         -2.67800       13.99400       14.39100
S          0.56000       13.35700        8.77200
C          0.47200        8.90200       19.21600
H          1.20300        9.15500       18.64600
H         -0.33400        8.85200       18.69700
H          0.65500        8.04700       19.60900
O          0.35400        9.62300       19.97900
H          0.15000       10.34400       19.64600
