75
C:\Users\Javier\OneDrive - Universitat de Barcelona\Tesi\4 - Contribucions\Treballs\3-PhD\chapter_1\cif\pc2p\BICLOR.pc2p.pdb
Ru         5.93000       13.96800       10.78300
S          7.80100       12.58000       11.26400
S          5.78200       13.24900       13.16300
C          7.27000       12.50300       12.85700
O          7.94300       11.93800       13.87200
C          9.30400       11.48800       13.57000
H          9.78700       12.17700       13.04700
H          9.28000       10.65100       13.04100
C          9.98900       11.25500       14.88500
H         10.03800       12.09800       15.38200
H         10.89400       10.91600       14.72700
H          9.48000       10.59900       15.40600
S          3.79300       15.02100       10.62500
S          4.29000       12.25500       10.09600
C          3.18400       13.52700       10.11600
O          1.89400       13.45200        9.79700
C          1.36500       12.16000        9.33800
H          1.76500       11.41900        9.85800
H          1.57400       12.02200        8.38000
C         -0.11800       12.20700        9.54800
H         -0.31100       12.23400       10.50900
H         -0.53000       11.41000        9.15400
H         -0.48400       13.00900        9.11900
P          7.03000       15.88400       11.23500
C          7.27400       16.80700        9.66400
H          6.46600       17.34400        9.46800
H          8.03900       17.43000        9.76300
C          7.54600       15.84800        8.49600
H          8.49800       15.57900        8.50300
H          7.36200       16.30800        7.63900
P          6.48200       14.34900        8.63000
C          6.23400       17.13100       12.32700
C          5.31900       16.73800       13.30000
H          5.03600       15.83200       13.33900
C          4.81500       17.65400       14.21000
H          4.22000       17.36500       14.89300
C          5.17500       18.97900       14.12700
H          4.83100       19.60300       14.75600
C          6.03300       19.40100       13.13400
H          6.25800       20.32100       13.05700
C          6.57100       18.47300       12.24700
H          7.17800       18.76400       11.57700
C          8.69300       15.74200       11.98500
C          8.79100       15.52100       13.36200
H          8.01100       15.55200       13.90200
C         10.02100       15.25700       13.94200
H         10.08000       15.12700       14.88100
C         11.16500       15.17900       13.16500
H         12.00300       14.98100       13.56500
C         11.07800       15.39300       11.80300
H         11.86000       15.34800       11.26500
C          9.85500       15.67500       11.22100
H          9.80700       15.82500       10.28400
C          5.14100       14.63100        7.40900
C          4.63400       15.91300        7.17800
H          4.98900       16.65800        7.64800
C          3.60400       16.09300        6.25300
H          3.27300       16.96700        6.08200
C          3.06100       15.01000        5.58400
H          2.36600       15.14100        4.95100
C          3.53300       13.74700        5.83800
H          3.14200       13.00200        5.39700
C          4.57700       13.54800        6.73600
H          4.90700       12.67100        6.89200
C          7.49500       13.06200        7.79300
C          7.36700       11.72300        8.11600
H          6.71400       11.45900        8.75300
C          8.17300       10.75500        7.52700
H          8.05800        9.84000        7.75200
C          9.14100       11.13000        6.61500
H          9.71400       10.47500        6.23400
C          9.27400       12.46100        6.25800
H          9.92800       12.71500        5.61700
C          8.45300       13.42700        6.83000
H          8.54100       14.33700        6.57100
