97
C:\Users\Javier\OneDrive - Universitat de Barcelona\Tesi\4 - Contribucions\Treballs\3-PhD\chapter_1\cif\pc2p\BOHZOP.pc2p.pdb
Pd         5.33800        4.08100        5.20600
P          5.89200        6.32800        5.46400
P          3.23100        4.72900        5.37900
F         10.24200        3.83100        6.32100
F          9.75500        2.93000        4.27300
F         10.03900        1.89100        6.19800
O          7.37600        3.56800        5.03200
O          7.72900        3.15400        7.19000
C          4.68300        2.11300        4.79300
C          5.78900        1.22400        4.36000
C          6.25300        1.20100        3.02500
C          7.23300        0.27500        2.63900
C          7.79400       -0.58500        3.54400
C          7.37000       -0.55800        4.87800
C          6.38200        0.33300        5.27000
C          5.72300        2.14300        2.00300
C          4.93400        1.70000        0.93900
C          4.47800        2.59100       -0.02700
C          4.78700        3.92700        0.05700
C          5.57500        4.38800        1.10700
C          6.04600        3.50300        2.07100
C          8.06000        3.24800        6.03100
C          9.53300        2.97700        5.63000
C          7.05300        6.90700        6.73000
C          6.91800        6.39200        8.02500
C          7.69500        6.91300        9.06000
C          8.59700        7.91600        8.80500
C          8.79200        8.36900        7.53400
C          8.02500        7.86600        6.48800
C          6.53100        7.01100        3.90000
C          5.88200        8.03500        3.18400
C          6.44000        8.49000        1.98000
C          7.58700        7.93800        1.50100
C          8.22300        6.93200        2.18300
C          7.70000        6.45900        3.38500
C          4.33500        7.21100        5.86100
C          3.17200        6.54700        5.11300
C          2.59600        4.50300        7.06500
C          3.31200        3.70700        7.96000
C          2.85700        3.52300        9.27600
C          1.68400        4.11900        9.67400
C          0.95500        4.90500        8.79700
C          1.40600        5.11000        7.50200
C          1.98100        4.10500        4.21200
C          2.34000        4.07800        2.86600
C          1.41600        3.67000        1.89500
C          0.15300        3.29100        2.27400
C         -0.20600        3.30100        3.60400
C          0.70500        3.68800        4.59100
H          4.26300        1.73500        5.60700
H          3.99400        2.14300        4.08300
H          7.51200        0.24400        1.73200
H          8.46700       -1.19600        3.26900
H          7.75800       -1.14800        5.51300
H          6.09800        0.34200        6.17700
H          4.70500        0.78100        0.87500
H          3.95000        2.27300       -0.74800
H          4.46400        4.53200       -0.59800
H          5.79200        5.31100        1.16400
H          6.59100        3.82200        2.77900
H          6.30000        5.69200        8.19700
H          7.59800        6.57400        9.94200
H          9.09000        8.29700        9.52200
H          9.45300        9.02900        7.36200
H          8.16600        8.18000        5.60300
H          5.07400        8.41200        3.51200
H          6.01600        9.18900        1.49600
H          7.95300        8.25400        0.68200
H          9.02400        6.55700        1.83400
H          8.14100        5.75900        3.85200
H          4.17000        7.17700        6.83600
H          4.40900        8.16100        5.59000
H          3.23900        6.74600        4.14600
H          2.31300        6.90700        5.44400
H          4.11700        3.28700        7.67600
H          3.35400        2.99200        9.88800
H          1.37000        3.98900       10.56000
H          0.14200        5.30500        9.08500
H          0.91000        5.66300        6.91000
H          3.21600        4.33700        2.60500
H          1.66400        3.65300        0.97700
H         -0.47900        3.02400        1.61700
H         -1.08400        3.04000        3.85400
H          0.45700        3.66700        5.50900
O          0.00000        7.56300        0.00000
C         -1.54300        7.81600        0.12700
C         -2.70600        7.69600       -0.91400
F          9.92600        3.73000        4.30700
F          9.80000        1.78800        5.32700
F          9.66400        2.31900        4.65500
F          9.66600        1.85900        6.89100
F         10.53700        3.29800        6.32300
F         10.32900        4.04500        5.79800
C         -0.01800        6.47100       -0.00900
C         -0.25400        4.71300       -0.76100
C          1.54300        7.31000       -0.12700
C          2.70600        7.43000        0.91400
