99
C:\Users\Javier\OneDrive - Universitat de Barcelona\Tesi\4 - Contribucions\Treballs\3-PhD\chapter_1\cif\pc2p\BOPMOJ.pc2p.pdb
Pd         0.37500       14.16700        6.15400
P         -1.66300       14.94300        5.32800
P         -0.71700       12.12900        6.09000
O          4.12200       14.47200        8.01700
C          2.08500       13.49900        7.13600
H          1.68200       13.28600        7.98200
C          3.01100       14.64000        7.49300
N          2.49600       15.86600        7.25400
C          1.31800       16.02200        6.40300
H          0.72200       16.64700        6.83700
C          2.81900       12.32100        6.57100
C          3.25700       12.29200        5.24600
H          3.07500       13.00000        4.73600
C          3.95000       11.20200        4.73200
H          4.25100       11.23600        3.83300
C          4.19400       10.09200        5.52700
H          4.67100        9.33600        5.14700
C          3.76400       10.09700        6.83400
H          3.85400        9.33400        7.39200
C          3.10000       11.20200        7.34900
H          2.79300       11.19400        8.29500
C          3.19300       17.06200        7.69700
H          3.21000       17.67400        7.00800
H          4.10200       16.82400        7.94100
C          2.54800       17.74400        8.88100
C          1.39300       17.26000        9.49300
H          1.03100       16.51400        9.14200
C          0.85200       17.90200       10.59900
H          0.10300       17.56900       10.98100
C          1.45200       19.02500       11.12000
H          1.08900       19.44600       11.86500
C          2.60200       19.51500       10.53000
H          3.08600       20.28800       10.85700
C          3.14200       18.88500        9.41600
H          3.85700       19.17900        8.99400
C          1.68600       16.57800        5.05800
C          2.76600       16.08900        4.33600
H          3.34600       15.42200        4.70100
C          3.02100       16.52400        3.04500
H          3.70000       16.22200        2.56200
C          2.22300       17.47800        2.42600
C          1.18700       18.01900        3.16800
H          0.64300       18.66100        2.79000
C          0.91700       17.58500        4.45700
H          0.19700       17.91600        4.96800
C          2.48300       17.87900        0.99800
H          1.84700       17.49100        0.37800
H          2.40000       18.78300        0.90900
H          3.36400       17.66800        0.69500
C         -2.97200       13.68000        5.71000
H         -3.69000       14.13600        6.12600
H         -3.26200       13.31100        4.83400
C         -2.43400       12.56700        6.61300
H         -2.97100       11.79600        6.57600
H         -2.35300       12.87800        7.50500
C         -2.27400       16.49200        6.09500
C         -1.95900       16.71500        7.42900
H         -1.46800       16.06200        7.91900
C         -2.32300       17.89400        8.05800
H         -2.06400       18.05900        8.97600
C         -2.99900       18.87500        7.36200
H         -3.21800       19.65700        7.75000
C         -3.33800       18.65900        6.04300
H         -3.80000       19.27400        5.55000
C         -2.98000       17.47100        5.40800
H         -3.17100       17.33500        4.52000
C         -1.83300       15.19300        3.52900
C         -0.69900       15.38300        2.75000
H          0.17200       15.34200        3.16300
C         -0.81200       15.63000        1.39300
H          0.00100       15.80700        0.88400
C         -2.05700       15.68000        0.78100
H         -2.15000       15.92100       -0.15600
C         -3.18700       15.44400        1.54100
H         -4.06700       15.39700        1.16000
C         -3.08900       15.20200        2.89800
H         -3.86400       14.96300        3.47700
C         -0.25200       10.76500        7.19700
C         -0.27100       11.00900        8.57000
H         -0.58600       11.81300        8.85400
C          0.17100       10.05600        9.46800
H          0.16900       10.25100       10.37200
C          0.63700        8.83200        9.02200
H          1.00400        8.20600        9.58000
C          0.64500        8.57400        7.66500
H          0.90700        7.80400        7.36400
C          0.21000        9.53400        6.75100
H          0.28000        9.37800        5.87100
C         -0.96900       11.39600        4.44000
C         -0.28200       11.92600        3.34200
H          0.30900       12.61700        3.47100
C         -0.55100       11.46000        2.06400
H         -0.08100       11.83000        1.36700
C         -1.48900       10.46800        1.86300
H         -1.70300       10.16900        1.00300
C         -2.16400        9.92300        2.94600
H         -2.73400        9.26600        2.83600
C         -1.90800       10.38800        4.22100
H         -2.33900       10.04900        4.91500
