142
C:\Users\Javier\OneDrive - Universitat de Barcelona\Tesi\4 - Contribucions\Treballs\3-PhD\chapter_1\cif\pc2p\BUGCUD.pc2p.pdb
Pd         2.31100        2.43300       18.03700
P          3.35100        2.68900       20.12800
P          4.39700        2.43200       17.20600
O          2.04100        2.17500       15.09700
O         -1.76000        2.51400       17.56100
N          0.12100        2.42200       16.24600
N          0.31400        2.44400       18.54400
C          1.47800        2.30000       16.17900
C         -0.53300        2.46000       17.52400
C         -0.69800        2.58000       15.03900
H         -0.13600        2.97000       14.32400
H         -1.42500        3.22500       15.23300
C         -1.31300        1.30200       14.52700
C         -2.66800        1.19300       14.39600
H         -3.22700        1.91200       14.66900
C         -3.24000        0.03100       13.86200
H         -4.18200       -0.03400       13.76000
C         -2.43400       -1.01500       13.48500
H         -2.81700       -1.79500       13.10100
C         -1.10700       -0.93600       13.65700
H         -0.55900       -1.68300       13.44400
C         -0.52700        0.23000       14.14700
H          0.41900        0.29000       14.21900
C         -0.30400        2.39900       19.86300
H          0.32800        1.95800       20.48400
H         -1.11000        1.82900       19.80700
C         -0.70300        3.73100       20.46000
C         -0.98100        3.79800       21.83700
H         -0.85400        3.03400       22.38500
C         -1.43600        4.97800       22.38900
H         -1.63300        5.01300       23.31700
C         -1.60800        6.09900       21.62200
H         -1.92900        6.90100       22.01600
C         -1.30800        6.05900       20.25500
H         -1.41700        6.83100       19.71100
C         -0.85100        4.87000       19.71500
H         -0.63300        4.84400       18.79100
C          5.13300        3.03400       19.81300
H          5.26700        4.00400       19.67100
H          5.67100        2.76000       20.60000
C          5.59700        2.26200       18.57800
H          5.69900        1.30500       18.80700
H          6.48000        2.60400       18.28700
C          3.35900        1.19000       21.16500
H          2.43000        0.85200       21.22100
H          3.89500        0.49900       20.69900
C          3.90100        1.32400       22.59600
H          3.85800        0.45400       23.04400
H          3.36100        1.97500       23.09000
H          4.83300        1.63000       22.56400
C          2.82000        4.05000       21.21500
H          1.94800        3.81900       21.62600
H          3.47900        4.16100       21.94600
C          2.68200        5.36600       20.46200
H          2.39200        6.06900       21.08000
H          2.02000        5.26600       19.74700
H          3.54900        5.61200       20.07400
C          4.87500        1.15600       16.03900
H          4.43200        1.33800       15.17300
H          5.85200        1.20800       15.89600
C          4.52400       -0.25100       16.47800
H          4.80300       -0.88700       15.78800
H          3.55300       -0.31800       16.61300
H          4.98300       -0.45500       17.31800
C          4.82400        4.54400       16.70500
H          4.16100        5.19300       17.05100
H          5.75200        4.83400       16.89200
C          4.64000        4.20500       15.63900
H          4.74900        4.96600       15.02900
H          3.73100        3.85100       15.55900
H          5.28400        3.50400       15.40400
Pd         5.94600        2.82300        8.62600
P          8.07600        3.22100        8.01600
P          6.80500        2.84200       10.79900
O          5.91700        2.91800        5.64900
O          1.93900        2.53400        7.81200
N          3.90900        2.78900        6.65900
N          3.94000        2.54700        8.94800
C          5.27600        2.84200        6.69600
C          3.17600        2.61000        7.86300
C          3.18400        2.93600        5.39300
H          3.68300        3.56300        4.81100
H          2.30000        3.34000        5.57800
C          2.98000        1.63700        4.65000
C          2.01600        0.72600        5.05000
H          1.47500        0.92100        5.80500
C          1.83300       -0.44400        4.37700
H          1.17200       -1.05800        4.67600
C          2.59200       -0.74700        3.27500
H          2.45800       -1.56300        2.80700
C          3.55000        0.15000        2.85500
H          4.07900       -0.04600        2.09000
C          3.74400        1.33700        3.54400
H          4.41100        1.94800        3.25100
C          3.21600        2.37000       10.20000
H          3.80100        1.87700       10.83000
H          2.42400        1.80100       10.02500
C          2.75200        3.63300       10.87600
C          2.70600        4.85600       10.22800
H          3.02700        4.92200        9.33600
C          2.20600        5.98300       10.85000
H          2.16500        6.80600       10.37800
C          1.76600        5.91900       12.15700
H          1.42100        6.69100       12.58900
C          1.83500        4.71600       12.82400
H          1.54800        4.66700       13.72800
C          2.31100        3.58500       12.20000
H          2.33900        2.76400       12.67700
C          9.14300        3.17000        9.42700
H          9.63600        2.31100        9.39900
H          9.81400        3.89200        9.32200
C          8.59000        3.29400       10.69000
H          8.69700        4.23100       10.99100
H          9.10000        2.72000       11.31600
C          8.39500        4.82700        7.35300
H          8.69000        5.37100        8.12600
H          9.19400        4.71500        6.78000
C          7.58800        5.61900        6.66600
H          8.04500        6.46200        6.47300
H          6.78000        5.79700        7.19400
H          7.33900        5.18100        5.82500
C          8.85600        2.19800        6.76600
H          8.49400        2.45500        5.88100
H          9.82700        2.39900        6.76000
C          8.68900        0.75100        6.92900
H          9.12700        0.28500        6.18800
H          7.73300        0.53300        6.93300
H          9.09100        0.47000        7.77800
C          6.83900        1.05700       11.60100
H          5.90300        0.75100       11.70600
H          7.27700        0.44100       10.95900
C          7.48900        0.92100       12.85200
H          7.45300       -0.01500       13.13900
H          7.03800        1.48400       13.51500
H          8.42300        1.20100       12.76600
C          6.18700        3.97800       11.98300
H          5.28900        3.68300       12.27800
H          6.78200        3.97800       12.77400
C          6.09100        5.40000       11.42900
H          5.74300        5.99700       12.12500
H          5.48800        5.41000       10.65800
H          6.98100        5.70300       11.15200
