70
C:\Users\Javier\OneDrive - Universitat de Barcelona\Tesi\4 - Contribucions\Treballs\3-PhD\chapter_1\cif\pc2p\BUGDAK.pc2p.pdb
Pd         6.68000        3.22900       17.07300
Cl        14.61400        6.68600       16.67800
Cl         6.59500       -0.62000       23.35300
P          5.58100        3.85400       15.21700
P          4.73300        2.01600       17.60200
O          8.57900        4.93700       15.53900
O         10.12800        2.90600       19.28300
N          9.43200        3.87600       17.33600
N          7.92300        2.71600       18.62900
C          8.37100        4.19100       16.48100
C          9.19700        3.11300       18.50600
C         10.70800        4.53000       17.18700
C         11.66600        4.00900       16.34000
H         11.49500        3.20500       15.86300
C         12.88300        4.66400       16.18800
H         13.55000        4.31200       15.61000
C         13.10900        5.82600       16.88500
C         12.16100        6.34600       17.73700
H         12.32800        7.15100       18.21300
C         10.96000        5.67600       17.88700
H         10.30400        6.01700       18.48200
C          7.61100        1.91900       19.76100
C          8.24200        0.71200       19.98200
H          8.90900        0.42200       19.37100
C          7.92900       -0.08800       21.07000
H          8.36700       -0.92100       21.20200
C          6.96700        0.35200       21.95700
C          6.31900        1.54900       21.76400
H          5.65100        1.83500       22.37600
C          6.64900        2.33600       20.66200
H          6.20800        3.16800       20.52900
C          3.81200        3.40300       15.38900
H          3.34200        4.09400       15.92000
H          3.39000        3.35900       14.49500
C          3.69400        2.05000       16.08200
H          3.98800        1.33500       15.46500
H          2.74800        1.88200       16.32300
C          5.60400        5.62100       14.76800
H          6.48400        5.84300       14.37400
H          4.91300        5.78800       14.07700
C          5.34800        6.53500       15.95100
H          5.37300        7.46900       15.65500
H          6.03800        6.39000       16.63100
H          4.46700        6.33800       16.33400
C          6.15800        2.95000       13.75200
H          7.12100        3.14400       13.62600
H          6.07400        1.98000       13.93200
C          5.43000        3.26100       12.45100
H          5.80800        2.71800       11.72600
H          5.53700        4.21100       12.23600
H          4.47800        3.05400       12.55200
C          4.94600        0.24800       17.97400
H          5.49000       -0.16000       17.25500
H          5.45900        0.16500       18.81700
C          3.65100       -0.55800       18.11600
H          3.86800       -1.49100       18.31900
H          3.14700       -0.51500       17.27500
H          3.11000       -0.18100       18.84100
C          3.63900        2.64000       18.93600
H          2.73500        2.25600       18.80600
H          3.98300        2.30900       19.80300
C          3.51500        4.14300       19.01000
H          2.91300        4.38400       19.74400
H          3.15500        4.48200       18.16400
H          4.39800        4.53500       19.17100
Cl         7.23300        5.86900       19.57000
Cl         5.94200        8.47200       19.62300
C          6.83200        7.27600       20.55200
H          6.28600        6.99000       21.32600
H          7.66600        7.68200       20.89800
