87
C:\Users\Javier\OneDrive - Universitat de Barcelona\Tesi\4 - Contribucions\Treballs\3-PhD\chapter_1\cif\pc2p\CADGOG.pc2p.pdb
Pd         3.03500       13.74600        6.70000
P          2.03900       13.20900        4.78800
P          3.31200       11.44400        7.00400
N          3.80300       14.16900        8.65300
C          3.14000       14.22000        9.75400
H          3.63800       14.36900       10.52300
C          2.77300       15.81500        6.28100
H          2.25500       16.22000        6.98100
H          2.31700       15.91800        5.44500
H          3.63200       16.24300        6.23100
C          1.25000       13.91800       11.23600
H          1.85800       13.93200       11.94000
C         -0.09900       13.74000       11.50100
H         -0.38700       13.63000       12.37800
C         -1.00200       13.72200       10.49000
H         -1.90800       13.61000       10.67000
C         -0.56300       13.87300        9.18000
H         -1.17600       13.84400        8.48200
C          0.76300       14.06600        8.91200
H          1.04000       14.18900        8.03400
C          1.70600       14.07700        9.94300
C          5.93900       14.86600        7.72100
H          5.47900       15.26600        7.01900
C          7.32000       14.89800        7.74700
H          7.78400       15.33200        7.06700
C          8.01100       14.29200        8.76700
H          8.94000       14.31000        8.78000
C          7.31800       13.66400        9.76600
H          7.78300       13.25400       10.45900
C          5.95400       13.63000        9.76100
H          5.49800       13.19500       10.44400
C          5.24300       14.24300        8.73400
C          2.34800       11.42300        4.44700
H          1.68200       11.09400        3.82400
H          3.22000       11.32000        4.03500
C          2.29200       10.60000        5.73300
H          2.63600        9.70700        5.57000
H          1.37500       10.52300        6.03800
C          3.69600       14.65200        3.09100
H          4.24700       14.77300        3.82900
C          4.08400       15.13700        1.84300
H          4.89200       15.58900        1.75700
C          3.28400       14.95600        0.74200
H          3.55400       15.27100       -0.09000
C          2.07500       14.30200        0.88000
H          1.53000       14.17500        0.13800
C          1.67600       13.83800        2.10400
H          0.85200       13.41500        2.19200
C          2.49700       13.99500        3.21900
C         -0.59900       12.28400        4.90600
H         -0.25100       11.43700        4.74300
C         -1.97800       12.45300        5.11000
H         -2.53900       11.71100        5.09200
C         -2.50300       13.67700        5.33400
H         -3.41600       13.77200        5.47900
C         -1.71000       14.75200        5.34700
H         -2.07900       15.59400        5.48500
C         -0.32800       14.62000        5.15800
H          0.21300       15.37700        5.17300
C          0.23500       13.37500        4.95000
C          1.48300       10.52500        8.90300
H          0.82900       10.62300        8.24900
C          1.13500       10.12600       10.20200
H          0.24700        9.93700       10.40200
C          2.07200       10.01700       11.16700
H          1.82400        9.75500       12.02300
C          3.36400       10.28200       10.89800
H          3.99900       10.21500       11.57500
C          3.75000       10.65200        9.62500
H          4.64600       10.82400        9.44700
C          2.81100       10.76700        8.61100
C          5.96200       11.66900        6.23700
H          5.77100       12.56700        6.09100
C          7.22000       11.18400        5.99400
H          7.87600       11.76400        5.68300
C          7.53700        9.86000        6.19800
H          8.39700        9.54500        6.03300
C          6.57200        9.03400        6.64100
H          6.77200        8.13700        6.77900
C          5.29400        9.48200        6.89600
H          4.64200        8.89300        7.20100
C          4.98900       10.82000        6.69400
B          0.34400        7.48400       13.62500
F          0.15400        8.85900       13.67900
F          0.19100        6.99700       12.36500
F         -0.62900        6.92600       14.41200
F          1.54600        7.21500       14.10800
