86
C:\Users\Javier\OneDrive - Universitat de Barcelona\Tesi\4 - Contribucions\Treballs\3-PhD\chapter_1\cif\pc2p\CAKFOL.pc2p.pdb
Ru         0.02900        5.37500       10.95800
P          1.46400        6.25700       12.46700
C          1.28100        8.00200       13.02500
C          2.16000        8.56500       13.96400
H          2.82600        8.02500       14.37400
C          2.05500        9.91800       14.29200
H          2.65000       10.29700       14.92800
C          1.08900       10.71000       13.69500
H          1.04100       11.63600       13.90400
C          0.19300       10.15600       12.79200
H         -0.49000       10.69100       12.40600
C          0.30500        8.80500       12.45500
H         -0.29800        8.43100       11.82400
C          1.57400        5.37400       14.07200
C          0.78900        5.80700       15.15400
H          0.30700        6.62300       15.08500
C          0.70500        5.05700       16.32500
H          0.16000        5.35600       17.04300
C          1.41800        3.87500       16.44000
H          1.36000        3.36200       17.23700
C          2.21100        3.44200       15.40100
H          2.70800        2.63800       15.49100
C          2.29100        4.17700       14.21200
H          2.83200        3.86400       13.49800
C          3.16400        6.24000       11.74800
H          3.74600        6.85800       12.25800
H          3.54500        5.32900       11.81900
C          3.11900        6.66800       10.27500
H          3.82100        6.18200        9.77500
H          3.31900        7.63700       10.21400
P          1.45900        6.33800        9.47600
C          0.99500        7.98000        8.78300
C          1.30700        9.17200        9.45200
H          1.84300        9.13600       10.23500
C          0.85400       10.40600        9.00000
H          1.08300       11.20000        9.46700
C          0.06000       10.46600        7.85400
H         -0.26100       11.30400        7.54100
C         -0.26200        9.30600        7.17200
H         -0.80000        9.35300        6.39000
C          0.19900        8.06300        7.62400
H         -0.02600        7.27200        7.14700
C          1.87900        5.43400        7.92700
C          1.43600        4.11900        7.74100
H          0.93400        3.69000        8.42300
C          1.72700        3.43100        6.55500
H          1.44500        2.53000        6.44500
C          2.43100        4.06900        5.53900
H          2.59800        3.61900        4.71900
C          2.89100        5.36600        5.72700
H          3.39200        5.79200        5.04000
C          2.62600        6.04500        6.90800
H          2.95200        6.92900        7.02700
C          1.34700        3.82100       11.00900
C          2.08300        2.93900       11.07500
C          3.01700        1.88400       11.30600
C          3.78600        1.00600       11.54300
C          4.66900       -0.13900       11.83300
H          4.16300       -0.82800       12.31200
H          5.42100        0.15900       12.38700
H          5.01000       -0.51000       10.99200
C         -1.69600        4.38700       11.98100
C         -1.95500        5.80400       11.96500
C         -2.04500        6.23400       10.60300
C         -1.88200        5.07300        9.76400
C         -1.67200        3.94200       10.60800
C         -1.64300        3.51800       13.19900
H         -2.55200        3.37200       13.53500
H         -1.10400        3.95600       13.89000
H         -1.23900        2.65500       12.96700
C         -2.26200        6.62600       13.18700
H         -2.01400        7.55900       13.02400
H         -1.75000        6.28100       13.94900
H         -3.21900        6.57100       13.38400
C         -2.48800        7.59700       10.11900
H         -3.41400        7.54600        9.80000
H         -1.90500        7.88900        9.38700
H         -2.43200        8.24000       10.85600
C         -2.11000        5.04200        8.27800
H         -1.54100        4.35400        7.87400
H         -1.88700        5.91600        7.89500
H         -3.05000        4.83500        8.09500
C         -1.50500        2.50900       10.17900
H         -2.34400        2.02400       10.32900
H         -0.78800        2.09400       10.70200
H         -1.27400        2.47800        9.22600
