157
C:\Users\Javier\OneDrive - Universitat de Barcelona\Tesi\4 - Contribucions\Treballs\3-PhD\chapter_1\cif\pc2p\COFFOT.pc2p.pdb
C         -0.78200        8.59700       10.74900
C         -0.75100        7.28300       10.36300
H         -0.10800        6.90400        9.77300
C         -2.48400        7.43600       11.72100
C         -2.29400        9.82600       12.32200
H         -3.01800        9.59400       12.95600
H         -2.65100       10.49100       11.68100
C         -1.19600       10.83100       14.30000
C          0.65900       11.44800       13.37100
H          1.51200       11.85100       13.26800
C          0.00600       10.77400       12.39800
C         -2.10300        5.17200       10.69500
H         -2.46700        4.76500       11.52000
H         -1.27900        4.68100       10.44800
C         -3.12400        5.04200        9.57200
H         -2.73400        5.41800        8.74400
H         -3.91900        5.58500        9.80300
C         -3.57600        3.60300        9.29600
H         -4.06800        3.58100        8.43900
H         -2.77500        3.02900        9.19900
C         -4.42100        3.05900       10.34000
H         -3.96600        3.14000       11.20500
H         -4.60200        2.11400       10.15400
H         -5.26600        3.55500       10.36900
C         -3.70400        7.12100       12.47700
C         -4.90600        7.70500       12.09600
H         -4.93500        8.30800       11.36400
C         -6.06500        7.39500       12.80000
H         -6.89600        7.79100       12.56200
C         -5.98400        6.48400       13.87500
H         -6.77600        6.23800       14.34100
C         -4.84800        5.97900       14.23600
H         -4.82300        5.39500       14.98500
C         -3.65700        6.26200       13.55700
H         -2.83500        5.87400       13.83400
C         -2.24900       10.46100       15.33800
C         -2.52600        9.09600       15.51000
H         -2.06700        8.44200       14.99600
C         -3.47500        8.72200       16.43200
H         -3.66700        7.79800       16.55000
C         -4.15900        9.65200       17.19400
H         -4.81100        9.38300       17.82800
C         -3.85900       11.00300       16.99500
H         -4.31700       11.65700       17.50800
C         -2.90300       11.42000       16.06300
H         -2.71400       12.34200       15.93700
C          0.34000       12.11000       15.76900
H         -0.33400       11.93400       16.47300
H          0.38800       13.08900       15.63100
C          1.66600       11.61500       16.22500
H          2.36800       12.01500       15.65100
H          1.69800       10.63400       16.09800
H          2.29700       11.45300       15.50700
H          2.05400       12.19400       16.89800
C          1.98600       11.92700       17.67700
H          2.91600       11.66600       17.90000
H          1.87300       12.89400       17.86300
C          1.03600       10.41400       16.79100
H          1.73500        9.71700       16.66400
H          0.33600       10.19200       16.13000
C          1.00100       11.11700       18.45300
H          0.12300       11.54800       18.41600
H          1.29500       11.05100       19.38600
H          0.94100       10.21800       18.06500
C          0.39800        9.99200       18.09500
H          0.33300       10.76700       18.69000
H          0.94500        9.29800       18.52100
H         -0.49800        9.63600       17.92000
C          0.11300        8.31300        7.45900
C         -1.24400        8.57400        7.39200
H         -1.58800        9.36400        7.79300
C         -2.10800        7.70300        6.75300
H         -3.04200        7.88400        6.74500
C         -1.63500        6.59800        6.13900
H         -2.23100        6.00500        5.69900
C         -0.27900        6.33100        6.15400
H          0.04500        5.56400        5.69700
C          0.61700        7.15400        6.82000
H          1.54400        6.94700        6.84500
C          1.73400       10.58400        7.06500
C          0.78300       11.38100        6.49200
H         -0.09600       11.38500        6.85600
C          1.06100       12.18500        5.39500
H          0.38800       12.73400        5.00600
C          2.33500       12.16400        4.89400
H          2.52800       12.68800        4.12600
C          3.32700       11.43400        5.44100
H          4.21600       11.48300        5.11100
C          2.99600       10.60400        6.51500
H          3.66200       10.03400        6.87700
C          2.55700        8.19000        8.74400
H          2.14600        7.30500        8.90600
H          3.14600        8.10900        7.95200
C          3.39700        8.56800        9.94000
H          3.99600        9.32100        9.70700
H          3.95500        7.80000       10.21600
C          2.87500        8.74300        8.67700
H          3.18300        8.24100        7.88000
H          3.52000        9.47300        8.85700
C          2.79500        7.82100        9.86500
H          3.70600        7.51000       10.09200
H          2.25800        7.02800        9.62000
C          3.54100        9.80000       12.37100
C          4.45800       10.76000       11.96700
H          4.49400       10.95200       11.03700
C          5.32900       11.47300       12.79500
H          5.89400       12.14100       12.42800
C          5.36700       11.20700       14.13100
H          6.00400       11.57800       14.72900
C          4.36800       10.33500       14.51800
H          4.27000       10.21800       15.44900
C          3.49800        9.60500       13.73800
H          2.89100        8.98900       14.12200
C          1.79700        7.50600       12.29100
C          2.25700        6.23800       11.95100
H          2.87000        6.12900       11.23400
C          1.82100        5.14400       12.65400
H          2.13100        4.28700       12.38500
C          0.97300        5.21000       13.71100
H          0.71100        4.43100       14.19000
C          0.51500        6.46300       14.05600
H         -0.06500        6.57400       14.81300
C          0.88500        7.54800       13.29300
H          0.46600        8.38400       13.49000
C          3.43900        9.36500       12.30700
C          4.57600        9.76300       11.64400
H          4.59600        9.72200       10.69500
C          5.68800       10.22000       12.32200
H          6.48400       10.44400       11.85300
C          5.62300       10.34900       13.70300
H          6.32000       10.79200       14.17200
C          4.54800        9.83100       14.39500
H          4.58800        9.71900       15.33800
C          3.40600        9.48100       13.69100
H          2.59700        9.31600       14.15500
C          1.47000        7.27400       12.41400
C          1.73700        5.93500       12.14000
H          2.28200        5.70500       11.39800
C          1.21000        4.92900       12.95100
H          1.40900        4.01900       12.76000
C          0.41100        5.23700       14.01700
H          0.01700        4.56000       14.55200
C          0.20200        6.57000       14.28100
H         -0.30100        6.79900       15.05300
C          0.67500        7.59000       13.49500
H          0.45900        8.49500       13.69200
N         -1.77200        6.59800       10.94800
N         -1.89300        8.64900       11.60900
N         -1.19300       10.40100       13.04300
N         -0.08300       11.46900       14.52900
I          2.21000       12.15500       10.38200
I         -1.45400       11.76700        9.52500
I         -2.02300        4.80800       16.89400
P          1.21400        9.43100        8.38100
P          2.27500        9.06300       11.32900
P          2.04200        8.61800       11.36600
Rh         0.50200       10.15200       10.50900
