108
C:\Users\Javier\OneDrive - Universitat de Barcelona\Tesi\4 - Contribucions\Treballs\3-PhD\chapter_1\cif\pc2p\DABQUU.pc2p.pdb
Pd         9.12800       13.79500        3.85600
S          7.39700       15.07600        3.00300
S         10.55800       14.76200        2.31300
S          7.31100       19.53900       -0.23500
S         10.12800       19.09800       -1.04600
P          7.75900       12.85200        5.40500
P         10.78600       12.48800        4.73200
O          8.68000       21.08500       -1.88000
C          8.20600       16.18900        1.88500
C          9.57500       16.03900        1.56900
C          8.11200       18.12500        0.43800
C          9.51200       17.93200        0.10300
C          7.49200       17.23100        1.29600
H          6.56700       17.33100        1.48600
C         10.17400       16.94200        0.65000
H         11.08800       16.82300        0.42400
C          8.66300       20.11800       -1.20700
C          6.66100       13.98900        6.33100
H          5.90200       14.22100        5.72300
C          7.36300       15.30200        6.68400
H          7.76500       15.69400        5.86900
H          8.09000       15.12700        7.33200
C          6.35500       16.29400        7.29100
H          6.82300       17.13200        7.53600
H          5.66400       16.51500        6.61800
C          5.69200       15.70800        8.52100
H          4.99300       16.33000        8.84200
H          6.36600       15.61000        9.24000
C          5.06200       14.34800        8.24000
H          4.28400       14.46900        7.63900
H          4.73100       13.96100        9.08900
C          6.04600       13.37200        7.59500
H          5.57700       12.53400        7.36000
H          6.76600       13.15100        8.23900
C          6.76600       11.51400        4.53300
H          7.26500       11.25600        3.70500
C          5.40300       12.06900        4.10400
H          5.10400       12.71900        4.78900
H          5.52100       12.56500        3.25700
C          4.32100       11.06600        3.91000
H          3.57000       11.34300        4.49200
H          4.00600       11.16600        2.97600
C          4.51500        9.67400        4.13000
H          4.32100        9.21000        3.27600
H          3.83100        9.37700        4.78100
C          5.84600        9.18000        4.61800
H          6.39000        8.89100        3.84100
H          5.70800        8.39300        5.20000
C          6.60700       10.25200        5.39400
H          7.49900        9.90900        5.64900
H          6.11500       10.47700        6.22200
C         12.23500       13.28200        5.57500
H         12.75600       12.55000        6.01300
C         11.78100       14.22600        6.67400
H         11.26200       13.71900        7.34800
H         11.18500       14.91700        6.28800
C         12.98000       14.91700        7.36400
H         12.64500       15.58400        8.01400
H         13.50500       14.24200        7.86300
C         13.87700       15.60500        6.34900
H         14.65800       16.00200        6.80900
H         13.37700       16.33500        5.90400
C         14.35400       14.60500        5.30600
H         14.89500       13.90200        5.74400
H         14.92900       15.06600        4.64500
C         13.16800       13.96500        4.58900
H         12.66800       14.66000        4.09300
H         13.49800       13.29900        3.93400
C         11.55500       11.34900        3.52000
H         12.10600       11.92000        2.91400
C         12.53000       10.34100        4.15700
H         12.04200        9.76300        4.79600
H         13.23300       10.82800        4.65800
C         13.18200        9.47100        3.06000
H         13.76400       10.04000        2.49500
H         13.74900        8.77900        3.48500
C         12.16500        8.81100        2.20500
H         11.63900        8.17600        2.75300
H         12.62100        8.29300        1.49500
C         11.23000        9.81500        1.56800
H         10.54600        9.33900        1.03200
H         11.74100       10.40400        0.95800
C         10.54100       10.66500        2.64300
H          9.96800       11.34500        2.20800
H          9.96100       10.08500        3.19800
C          8.82800       12.07400        6.66800
H          9.12800       12.76400        7.31100
H          8.30500       11.39700        7.16700
C         10.04800       11.40600        6.03600
H          9.78000       10.54200        5.63500
H         10.72400       11.22300        6.73500
C          6.49200       11.51900        5.00900
C          5.40300       12.06900        4.10400
C          4.68700       11.08000        3.24400
C          4.86400        9.68100        3.39500
C          6.07300        9.19100        4.16400
C          7.11800       10.29800        4.34300
H          6.06800       11.22500        5.86600
H          4.73300       12.52700        4.67200
H          5.80800       12.75500        3.51500
H          3.72000       11.25800        3.34700
H          4.91900       11.29600        2.30600
H          4.90000        9.28100        2.49000
H          4.05700        9.32200        3.84300
H          6.48200        8.43100        3.67900
H          5.78500        8.86700        5.05400
H          7.86300        9.96100        4.90200
H          7.48400       10.55400        3.46100
