112
C:\Users\Javier\OneDrive - Universitat de Barcelona\Tesi\4 - Contribucions\Treballs\3-PhD\chapter_1\cif\pc2p\DAFSOU.pc2p.pdb
Ru        -4.28400       12.37700       13.68200
P         -3.77900       12.52200       15.90000
C         -4.65900       11.47900       17.11000
C         -6.02000       11.24700       16.90500
H         -6.42000       11.51600       16.08600
C         -6.80000       10.63400       17.86900
H         -7.72800       10.50000       17.71800
C         -6.21500       10.21500       19.06000
H         -6.74400        9.80600       19.73400
C         -4.85100       10.39800       19.25800
H         -4.44600       10.07900       20.05500
C         -4.08400       11.03900       18.31000
H         -3.15800       11.18300       18.47200
C         -2.01800       12.22800       16.27600
C         -1.07800       13.24600       16.40800
H         -1.36500       14.15100       16.43500
C          0.27900       12.94700       16.50100
H          0.91000       13.65100       16.59500
C          0.71700       11.64000       16.45700
H          1.64600       11.44400       16.51100
C         -0.20900       10.60900       16.33400
H          0.08700        9.70600       16.30900
C         -1.55400       10.89600       16.24800
H         -2.17800       10.18400       16.16800
C         -4.17400       14.20700       16.58600
H         -4.44300       14.11600       17.53400
H         -3.35800       14.76800       16.55600
C         -5.29700       14.91500       15.81100
H         -5.05800       15.87000       15.70500
H         -6.13000       14.87100       16.34600
P         -5.62700       14.18600       14.12000
C         -7.46200       13.99600       14.14200
C         -8.16700       13.57000       15.26700
H         -7.69800       13.40400       16.07700
C         -9.54200       13.38600       15.22500
H        -10.00300       13.09200       16.00200
C        -10.24200       13.62400       14.06800
H        -11.18500       13.50100       14.04500
C         -9.56700       14.04700       12.93500
H        -10.04500       14.21100       12.13100
C         -8.19600       14.23100       12.97500
H         -7.74300       14.52400       12.19200
C         -5.46600       15.57600       12.92000
C         -4.85400       15.34000       11.69000
H         -4.53700       14.47000       11.48300
C         -4.70300       16.36500       10.76200
H         -4.27500       16.19300        9.93100
C         -5.17100       17.63200       11.04500
H         -5.08400       18.32800       10.40300
C         -5.76900       17.88500       12.27200
H         -6.06500       18.76400       12.47800
C         -5.93800       16.86600       13.20300
H         -6.37300       17.04300       14.02900
C         -2.80800       13.70600       13.43100
C         -1.62800       13.92300       12.70300
C         -0.67400       12.97200       12.12800
C         -0.01400       13.17300       10.89900
N         -0.56300       14.10000        9.88100
O         -1.66200       14.58700       10.03900
O          0.11400       14.30100        8.87700
C          1.13000       12.48100       10.53200
H          1.57100       12.65900        9.70800
C          1.60600       11.53000       11.40000
N          2.85600       10.83800       11.06100
O          3.47600       11.20600       10.06600
O          3.21800        9.92100       11.79700
C          0.95600       11.22000       12.58800
H          1.27400       10.52200       13.14900
C         -0.15900       11.94900       12.93500
H         -0.59700       11.74900       13.75400
C         -1.24700       15.30300       12.74400
O         -0.33100       15.91600       12.20100
C         -2.23200       15.94400       13.69700
O         -2.34400       17.07600       14.06100
O         -3.04600       14.96100       14.13700
C         -3.61600       10.38200       12.76400
C         -4.76800       10.11600       13.57200
C         -5.87200       10.83600       13.04800
C         -5.40400       11.55000       11.89600
C         -4.03000       11.26300       11.71100
C         -2.35800        9.57800       12.83700
H         -2.02300        9.57900       13.75800
H         -1.68500        9.96900       12.24300
H         -2.54300        8.65600       12.55800
C         -4.82400        9.04500       14.63200
H         -5.54400        9.24800       15.26300
H         -3.96800        9.01300       15.10900
H         -4.99400        8.17700       14.21100
C         -7.30500       10.65700       13.43200
H         -7.74800       10.07900       12.77500
H         -7.75000       11.53000       13.45100
H         -7.35600       10.24400       14.31800
C         -6.29100       12.18500       10.85200
H         -5.81400       12.92600       10.42500
H         -7.10700       12.52400       11.27900
H         -6.52900       11.51600       10.17600
C         -3.24500       11.65900       10.49900
H         -3.60800       11.20400        9.71000
H         -2.30600       11.40200       10.62000
H         -3.30500       12.62900       10.37500
C         -0.92500        9.04000        9.41900
H         -1.76300        9.02200        9.86800
C          0.20600        8.56200       10.04700
H          0.14700        8.23000       10.93600
C          1.41500        8.56600        9.39400
H          2.18700        8.21400        9.82300
C          1.51300        9.07800        8.11800
H          2.35300        9.09000        7.67200
C          0.38200        9.57400        7.48900
H          0.44700        9.93500        6.61300
C         -0.83500        9.54400        8.13200
H         -1.61300        9.87000        7.69400
