92
C:\Users\Javier\OneDrive - Universitat de Barcelona\Tesi\4 - Contribucions\Treballs\3-PhD\chapter_1\cif\pc2p\DEDCIA.pc2p.pdb
C          2.94400       10.11100       -2.04600
H          2.25600        9.44800       -2.13200
H          3.00900       10.61300       -2.86200
H          2.72800       10.70400       -1.32200
Ru        10.23000       13.53800        0.74400
P         12.33600       13.14800       -0.04700
P         10.10600       15.00400       -0.99100
S          1.58500       14.66000       -4.28400
N          7.85000       10.57500       -1.19300
C         11.55100       14.78100       -2.12800
H         11.36700       14.06600       -2.75700
H         11.70500       15.59700       -2.62900
F          0.27200       16.14900       -6.00000
C         12.79100       14.43700       -1.29200
H         13.11400       15.23100       -0.84000
H         13.49600       14.10400       -1.87000
F         -0.98200       15.02300       -4.69600
F          0.02900       14.07100       -6.31700
C          8.27900       11.31800       -0.16500
H          7.89900       11.30300        0.68500
C          8.64800       14.89000       -2.07900
C         10.69900       14.56500        2.63000
H         11.42200       15.14600        2.70200
C         12.65600       11.53400       -0.84700
N          9.31500       12.07800       -0.51000
C         10.22300       16.80500       -0.65100
C         13.72600       13.24400        1.14600
C         14.46500       12.12600        1.50300
H         14.27500       11.30100        1.11700
C          6.68000        9.69200       -1.19900
H          6.55800        9.32300       -0.31000
H          6.84400        8.95500       -1.80600
C          8.63700       10.86400       -2.27300
H          8.56900       10.50600       -3.12900
C         13.50400       11.36000       -1.94000
H         13.92100       12.09600       -2.32700
C         12.30700        9.14300       -0.77500
H         11.91900        8.39800       -0.37500
C         13.72900       10.08200       -2.45100
H         14.28000        9.97300       -3.19300
C          9.49900       17.74300       -1.38600
H          8.86600       17.45800       -2.00500
C          8.71200       15.08000       -3.45200
H          9.53400       15.23000       -3.86100
C          5.42000       10.40000       -1.61500
H          5.57100       10.85400       -2.45900
H          5.19500       11.07100       -0.95100
C          6.33500       14.81200       -3.63100
H          5.56100       14.80400       -4.14700
C          9.71700       19.09700       -1.20000
H          9.23100       19.71800       -1.69300
C         10.65400       19.52700       -0.28600
H         10.80900       20.43700       -0.17600
C         11.13500       17.26000        0.29500
H         11.60100       16.64700        0.81600
C          8.59200       13.73500        2.24100
H          7.69100       13.68100        2.01700
O          1.52600       15.74400       -3.34900
C         11.36200       18.61600        0.46900
H         11.98800       18.91000        1.09100
C         15.78500       13.44900        3.01000
H         16.47900       13.51500        3.62600
O          2.69000       14.70400       -5.19500
C         14.03700       14.46600        1.74400
H         13.55400       15.22600        1.51500
C          9.37900       14.90500        2.24600
H          9.08000       15.76000        2.03300
C          9.53100       11.77700       -1.84100
H         10.20000       12.15200       -2.36700
C          7.41200       14.62800       -1.50300
H          7.35600       14.47900       -0.58800
O          1.28000       13.38200       -3.73400
C         15.05800       14.55800        2.67400
H         15.25000       15.37800        3.07200
C          0.16200       14.99300       -5.36400
C          6.26000       14.58500       -2.27000
H          5.43900       14.40400       -1.87100
C         15.49100       12.23600        2.43800
H         15.97900       11.48200        2.67600
C         12.05100       10.40400       -0.28300
H         11.46900       10.50600        0.43500
C          7.54900       15.04900       -4.22200
H          7.59900       15.18900       -5.14000
C          4.26100        9.43700       -1.76600
H          4.45800        8.82100       -2.49100
H          4.17800        8.91700       -0.95100
C         13.14600        8.98600       -1.87100
H         13.31100        8.13700       -2.21300
C         10.71100       13.16200        2.88500
H         11.44600       12.66700        3.16700
C          9.42500       12.65300        2.63700
H          9.16400       11.76400        2.71800
