192
C:\Users\Javier\OneDrive - Universitat de Barcelona\Tesi\4 - Contribucions\Treballs\3-PhD\chapter_1\cif\pc2p\DEKSUI.pc2p.pdb
Ru        12.02600        5.99000       21.42800
Ru         6.70300       13.61700       14.47300
Cl         8.64600        4.67500       15.81700
Cl        10.79700        4.56900       13.87400
Cl         3.75200       12.55100       21.23000
Cl         6.51800       11.75400       21.71200
P         12.76900        4.10700       20.27800
P          9.94800        5.10800       20.92900
P          7.43900       11.82700       15.75400
P          4.64400       12.65500       14.83900
O         14.48300        9.65400       18.74100
O         11.48400        6.40000       17.72900
O          9.39000       17.09700       17.12000
O          6.21100       14.04000       18.21900
N         13.18300        7.91100       18.00000
N          7.94500       15.48400       17.90900
C         13.96300        7.08300       21.50800
C         13.90900        6.16800       22.57400
C         12.85500        5.92000       23.51400
C         11.55900        6.46900       23.52600
C         11.10100        7.53800       22.72000
C         11.55700        8.96900       22.77000
C         13.05200        9.18100       22.65800
C         13.63000        8.57400       21.42200
C         12.75500        8.74500       20.15300
C         13.59400        8.86000       18.91900
C         12.08400        7.16700       18.47100
C         11.79600        7.54300       19.87200
C         13.75300        7.82100       16.69300
C         12.97800        8.07600       15.58700
C         13.55200        8.03900       14.32400
C         14.88900        7.75500       14.19200
C         15.66000        7.50000       15.32300
C         15.09000        7.52900       16.55800
C         11.31500        3.09800       19.76600
C         10.11800        3.96100       19.50000
C         13.85400        4.21100       18.80900
C         13.42500        3.84300       17.52500
C         14.32400        3.82000       16.47700
C         15.62600        4.13600       16.67300
C         16.07500        4.51000       17.93100
C         15.18600        4.57800       18.98200
C         13.66800        2.74600       21.14400
C         14.44600        1.81800       20.46000
C         14.93500        0.67600       21.08800
C         14.63900        0.44300       22.42500
C         13.87000        1.36500       23.12100
C         13.42900        2.52000       22.48500
C          9.05000        4.07000       22.16300
C          9.72400        3.58000       23.26900
C          9.04200        2.80100       24.21700
C          7.71600        2.51900       24.04000
C          7.06300        2.98000       22.94300
C          7.69400        3.75400       21.99300
C          8.63800        6.28900       20.41700
C          7.82100        6.88900       21.36700
C          6.93700        7.88600       21.00200
C          6.81600        8.28600       19.71400
C          7.61800        7.69800       18.75400
C          8.53800        6.72600       19.09400
C         10.37800        4.37400       15.56700
C          8.64200       14.69200       14.36000
C          8.56900       13.79700       13.32400
C          7.50200       13.57400       12.38100
C          6.22600       14.14800       12.38600
C          5.76900       15.19800       13.20600
C          6.22700       16.64200       13.21100
C          7.69700       16.84200       13.27400
C          8.33800       16.18100       14.48000
C          7.49500       16.35000       15.77100
C          8.43200       16.38600       16.97800
C          6.80100       14.79700       17.46500
C          6.52700       15.16000       16.06200
C          8.50400       15.38700       19.22900
C          9.82400       15.00400       19.39000
C         10.37500       14.97500       20.65700
C          9.63700       15.30400       21.74600
C          8.29500       15.66600       21.58500
C          7.75200       15.72400       20.31600
C          6.04700       11.19500       16.75500
C          4.81000       11.16700       15.93000
C          8.78100       11.93700       17.00000
C         10.07800       12.10200       16.52200
C         11.15900       12.01200       17.37200
C         10.95100       11.78900       18.72500
C          9.74000       11.61400       19.21200
C          8.60000       11.69600       18.36000
C          8.03600       10.29400       14.88400
C          8.79300        9.32400       15.55800
C          9.17700        8.16900       14.90800
C          8.85000        7.94700       13.61400
C          8.09500        8.88500       12.92600
C          7.70400       10.07400       13.58500
C          3.66600       11.85600       13.49700
C          4.30600       11.37200       12.36700
C          3.57500       10.68000       11.40700
C          2.25500       10.45200       11.54600
C          1.59700       10.92700       12.66900
C          2.30100       11.61000       13.64500
C          3.43100       13.79400       15.58200
C          2.61300       14.58100       14.79500
C          1.80700       15.55700       15.37500
C          1.82600       15.73500       16.77400
C          2.62300       14.91100       17.53000
C          3.42300       13.95200       16.95700
C          5.29900       12.10600       20.49100
H         14.55000        6.79500       20.82000
H         14.49500        5.43100       22.45400
H         12.88200        5.03200       23.85000
H         10.89600        5.92300       23.93400
H         10.15500        7.50000       22.63800
H         11.26300        9.34200       23.59100
H         11.15300        9.43600       22.04800
H         13.46000        8.78000       23.41600
H         13.22900       10.11400       22.65800
H         14.45100        9.01500       21.24200
H         12.22900        9.53000       20.25600
H         10.89700        7.85100       19.90500
H         12.05400        8.27300       15.68500
H         13.02000        8.20900       13.55700
H         15.27300        7.74600       13.32400
H         16.58600        7.30700       15.22400
H         15.60100        7.33700       17.33600
H         11.53000        2.63800       18.96500
H         11.11300        2.46900       20.45000
H         10.22800        4.45100       18.69400
H          9.34200        3.41800       19.43800
H         15.48300        4.87300       19.83400
H         16.99400        4.70800       18.06300
H         16.22800        4.11800       15.93700
H         14.03400        3.55400       15.61300
H         12.51200        3.62000       17.38600
H         14.66300        1.98400       19.55000
H         15.46700        0.05100       20.60600
H         14.94600       -0.34700       22.85400
H         13.66200        1.22300       24.03500
H         12.95200        3.17500       22.97900
H         10.64200        3.78900       23.39700
H          9.50100        2.46100       24.97500
H          7.24200        2.01700       24.69500
H          6.15200        2.74800       22.81100
H          7.22300        4.07800       21.23500
H          7.87400        6.60000       22.26900
H          6.41500        8.30100       21.67600
H          6.17200        8.93700       19.46400
H          7.54800        7.97900       17.84900
H          9.09700        6.34600       18.42700
H         10.87400        4.99900       16.08600
H         10.58800        3.49300       15.84800
H          9.23500       14.40200       15.04200
H          9.15400       13.05500       13.42200
H          7.50300       12.69100       12.02800
H          5.54300       13.62500       11.98000
H          4.82400       15.15600       13.30000
H          5.90300       17.06000       12.42200
H          5.84500       17.06300       13.97200
H          8.07700       16.46100       12.48900
H          7.87500       17.77500       13.29000
H          9.16200       16.62900       14.62400
H          7.00100       17.16100       15.73100
H          5.63800       15.49500       16.03800
H         10.33500       14.75500       18.62900
H         11.29000       14.74800       20.76900
H         10.01500       15.28100       22.61700
H          7.75500       15.86500       22.34100
H          6.85300       16.00900       20.19600
H          5.91200       11.76100       17.50600
H          6.25600       10.31800       17.05300
H          4.05900       11.12700       16.51000
H          4.82700       10.39100       15.38300
H         10.22100       12.24900       15.59400
H         12.03500       12.14100       17.02600
H         11.70600       11.73800       19.30100
H          9.62700       11.45200       20.14100
H          7.72600       11.57800       18.71500
H          9.07200        9.47400       16.45500
H          9.66500        7.50700       15.38300
H          9.15400        7.15900       13.17800
H          7.85000        8.73400       12.02100
H          7.17000       10.71200       13.12700
H          5.24200       11.48900       12.25600
H          4.01000       10.37300       10.62000
H          1.79200        9.95200       10.88400
H          0.65700       10.80100       12.73800
H          1.84900       11.89700       14.43000
H          2.61500       14.47200       13.84900
H          1.24500       16.09600       14.83100
H          1.30600       16.42700       17.16500
H          2.57800       14.98300       18.47500
H          4.00100       13.41600       17.48400
H          5.17600       11.34000       19.94100
H          5.59700       12.83300       19.95800
