306
C:\Users\Javier\OneDrive - Universitat de Barcelona\Tesi\4 - Contribucions\Treballs\3-PhD\chapter_1\cif\pc2p\DIFQIU.pc2p.pdb
Pd        12.54000       10.54500       19.26900
S         11.60700       11.94000       17.63800
S         14.06300       10.42900       17.46900
P         10.87200       10.73800       20.79900
P         13.46600        9.07300       20.73100
N         12.95400       11.67400       15.35400
C         12.91300       11.38900       16.65900
C         11.94600       12.45000       14.62600
H         11.83200       13.35000       15.02500
H         11.07100       11.98700       14.62600
C         12.50500       12.53700       13.24400
H         11.78000       12.44700       12.57800
H         12.94300       13.41700       13.11100
C         13.44300       11.51000       13.07000
H         14.17500       11.81400       12.47900
H         13.01200       10.72100       12.65700
C         13.99900       11.14100       14.46000
H         14.09800       10.16200       14.56100
H         14.87300       11.57700       14.62600
C         11.20800        9.55500       22.15400
H         10.79300        9.88300       22.99000
H         10.80300        8.67800       21.93200
C         12.72900        9.38800       22.35900
H         12.90700        8.62900       22.96900
H         13.11200       10.20900       22.75800
C         10.73500       12.39800       21.48800
C         10.27000       13.43300       20.66600
H          9.98600       13.24200       19.77900
C         10.22000       14.72900       21.14000
H          9.90400       15.43000       20.58400
C         10.63200       14.99900       22.43700
H         10.58100       15.88900       22.76100
C         11.11100       14.02000       23.25600
H         11.42300       14.23300       24.12600
C         11.14300       12.69100       22.79200
H         11.43800       11.99300       23.36500
C          9.22700       10.34300       20.20900
C          8.07900       10.91600       20.77200
H          8.15700       11.52800       21.49500
C          6.84800       10.59600       20.28400
H          6.08500       11.00200       20.67600
C          6.65900        9.69400       19.23300
H          5.79200        9.50100       18.89100
C          7.80000        9.09000       18.70000
H          7.70600        8.44100       18.01400
C          9.07000        9.42000       19.15800
H          9.83400        9.01900       18.76200
C         12.97300        7.39800       20.24300
C         12.91400        6.33400       21.16100
H         13.16200        6.47800       22.06800
C         12.49800        5.09000       20.75800
H         12.45600        4.38100       21.38900
C         12.14800        4.85900       19.45800
H         11.82700        4.00400       19.19500
C         12.26700        5.87500       18.52600
H         12.07500        5.69800       17.61200
C         12.65800        7.13500       18.90200
H         12.71800        7.82800       18.25300
C         15.25500        8.99800       21.00700
C         16.08700        8.31000       20.14400
H         15.71400        7.92100       19.35900
C         17.43400        8.16500       20.37900
H         17.96800        7.64900       19.78900
C         17.99200        8.74900       21.44400
H         18.92800        8.67400       21.59100
C         17.19500        9.47400       22.33800
H         17.58500        9.90000       23.09200
C         15.81800        9.56300       22.10900
H         15.26700       10.02500       22.73000
Pd         3.45400        7.96500       23.82000
S          4.94100        7.75200       22.01100
S          5.33400        6.86100       24.73400
P          1.75800        9.13800       22.87000
P          2.11500        7.89200       25.64700
N          7.21400        6.60300       22.85600
C          5.99400        7.01100       23.13700
C          7.82900        6.78200       21.51900
H          7.98000        7.74100       21.32100
H          7.25700        6.39500       20.80900
C          9.14400        6.03400       21.62500
H          9.84000        6.45900       21.06500
H          9.03700        5.09000       21.34500
C          9.50300        6.12700       23.10200
H         10.12700        5.40700       23.36500
H          9.90500        7.00400       23.31700
C          8.16300        5.96200       23.78200
H          7.94300        5.00400       23.90800
H          8.15400        6.41000       24.66500
C          0.23500        8.74800       23.80500
H         -0.46800        9.41200       23.59700
H         -0.09700        7.85100       23.54900
C          0.55800        8.78100       25.29900
H         -0.18200        8.36100       25.80500
H          0.64000        9.72100       25.60000
C          1.34800        8.88800       21.12300
C          2.24000        9.32900       20.15400
H          3.06500        9.72700       20.40300
C          1.90900        9.17900       18.81300
H          2.51700        9.48900       18.15400
C          0.75800        8.61400       18.41000
H          0.56100        8.52200       17.48600
C         -0.13800        8.16800       19.35900
H         -0.96000        7.77300       19.09300
C          0.17300        8.29900       20.72700
H         -0.43800        7.97800       21.38300
C          2.06800       10.91900       23.01400
C          3.30100       11.45800       22.61400
H          4.00200       10.87400       22.34800
C          3.51400       12.80800       22.60800
H          4.34600       13.15300       22.30700
C          2.52500       13.67500       23.03100
H          2.67700       14.61300       23.01400
C          1.33400       13.18900       23.47800
H          0.67100       13.78600       23.80500
C          1.07700       11.80000       23.45400
H          0.23200       11.46600       23.73400
C          2.75700        8.59800       27.20300
C          3.76900        9.54700       27.17400
H          4.17700        9.78400       26.34800
C          4.18000       10.14500       28.34100
H          4.86000       10.80800       28.32000
C          3.61100        9.78600       29.53500
H          3.90400       10.20500       30.33300
C          2.60400        8.81300       29.59600
H          2.23800        8.55100       30.43200
C          2.15700        8.23700       28.41200
H          1.44900        7.60500       28.42600
C          1.70700        6.17200       26.02500
C          0.47900        5.61200       25.67900
H         -0.20800        6.15800       25.31000
C          0.26000        4.26600       25.87300
H         -0.57500        3.88500       25.63500
C          1.26500        3.45000       26.41900
H          1.10800        2.52000       26.54200
C          2.48400        4.00900       26.77400
H          3.16000        3.46500       27.16000
C          2.71800        5.35800       26.57000
H          3.56200        5.73500       26.79500
Pd        12.79100        8.85400       31.90900
S         13.79300        7.30500       33.35900
S         11.42700        8.87400       33.83600
P         14.32500        8.70000       30.23700
P         11.84200       10.47700       30.60400
N         12.61800        7.39600       35.74600
C         12.59300        7.80000       34.49300
C         13.59800        6.48100       36.30200
H         14.47700        6.92300       36.41500
H         13.70600        5.68100       35.72900
C         12.99400        6.11000       37.65300
H         12.36200        5.35300       37.56500
H         13.70100        5.86800       38.30200
C         12.27500        7.37100       38.07600
H         12.90800        8.03900       38.44200
H         11.58500        7.17400       38.75900
C         11.63000        7.87000       36.76600
H         10.73900        7.46400       36.62300
H         11.54700        8.85600       36.75900
C         13.92000        9.92200       28.93100
H         14.41600       10.76100       29.10200
H         14.21100        9.56900       28.05100
C         12.43900       10.21400       28.88700
H         11.95700        9.45500       28.47000
H         12.27100       11.02500       28.34100
C         14.41700        7.05400       29.49400
C         15.02400        6.04300       30.23100
H         15.39700        6.22600       31.08400
C         15.08100        4.76700       29.70600
H         15.50500        4.07200       30.19400
C         14.51000        4.48800       28.42900
H         14.52600        3.60800       28.07400
C         13.94100        5.50100       27.74300
H         13.58200        5.32300       26.88000
C         13.85900        6.76900       28.24200
H         13.43100        7.45400       27.74000
C         16.04100        9.05800       30.66400
C         16.36200        9.46200       31.94400
H         15.69300        9.51000       32.61600
C         17.65900        9.79000       32.23100
H         17.90000       10.02900       33.12100
C         18.63300        9.77800       31.23400
H         19.52300       10.05100       31.42900
C         18.30000        9.37200       29.97200
H         18.96300        9.31700       29.29600
C         17.02900        9.05600       29.70900
H         16.79800        8.81800       28.81800
C         12.47300       12.07700       31.15200
C         12.57700       13.16400       30.28600
H         12.30900       13.07200       29.37800
C         13.07000       14.38000       30.74300
H         13.13300       15.11600       30.14600
C         13.46900       14.53100       32.06400
H         13.80000       15.36500       32.37400
C         13.37500       13.43400       32.93000
H         13.66300       13.52300       33.83100
C         12.87500       12.23800       32.50000
H         12.79500       11.51200       33.10400
C         10.02900       10.70100       30.43200
C          9.41300       10.96100       29.21800
H          9.92100       10.94700       28.41600
C          8.10800       11.23200       29.17700
H          7.71400       11.42500       28.33400
C          7.31100       11.24600       30.27900
H          6.38500       11.43600       30.20400
C          7.86500       10.98200       31.49700
H          7.33000       10.99300       32.27900
C          9.24200       10.69000       31.58200
H          9.63300       10.48700       32.42200
Pd        19.49200        5.84500       23.56000
S         20.87500        5.95600       21.67000
S         21.43600        6.94000       24.33300
P         17.83100        4.54100       22.76000
P         18.16600        5.99900       25.41100
N         23.18900        7.13800       22.32200
C         22.00500        6.74000       22.70000
C         23.70100        6.94300       20.92500
H         23.63200        5.99400       20.65200
H         23.19500        7.50000       20.28000
C         25.12600        7.37300       20.99700
H         25.22600        8.30300       20.67300
H         25.69700        6.78100       20.44800
C         25.51600        7.27800       22.48100
H         26.26000        7.89300       22.70000
H         25.77500        6.35300       22.72700
C         24.20900        7.70200       23.18100
H         24.15400        7.32600       24.09500
H         24.13300        8.68800       23.23200
C         16.30400        5.02800       23.62500
H         16.00500        5.92100       23.31700
H         15.58100        4.37600       23.44000
C         16.62100        5.06000       25.11600
H         16.72700        4.13600       25.45400
H         15.87600        5.48600       25.60700
C         17.44700        4.43300       20.98700
C         18.38400        3.81400       20.14000
H         19.22200        3.52500       20.47800
C         18.05900        3.63200       18.80300
H         18.67200        3.18800       18.22600
C         16.87400        4.08700       18.31100
H         16.68000        3.97700       17.39000
C         15.95900        4.69500       19.11700
H         15.13000        4.99900       18.76200
C         16.25800        4.86600       20.47800
H         15.62600        5.28800       21.04800
C         18.19300        2.81600       23.21200
C         19.50300        2.36300       23.05500
H         20.19000        2.97500       22.81600
C         19.80200        1.02100       23.24200
H         20.69000        0.70900       23.10200
C         18.80400        0.13000       23.63800
H         19.00400       -0.79100       23.76800
C         17.51400        0.60700       23.84000
H         16.83900        0.00900       24.13300
C         17.19700        1.94400       23.61400
H         16.30800        2.25400       23.73700
C         18.85800        5.33900       26.95900
C         19.91400        4.44900       26.89700
H         20.30300        4.23300       26.05800
C         20.41100        3.86500       28.07100
H         21.15000        3.26600       28.04400
C         19.80300        4.18200       29.26900
H         20.13400        3.80100       30.07100
C         18.71200        5.04800       29.32700
H         18.29100        5.23500       30.15600
C         18.25900        5.61900       28.18000
H         17.52200        6.21800       28.21400
C         17.71600        7.73200       25.73700
C         16.41500        8.20900       25.59400
H         15.72300        7.60200       25.35500
C         16.10100        9.54300       25.79500
H         15.21200        9.85800       25.68600
C         17.12400       10.41300       26.15700
H         16.92900       11.33200       26.29700
C         18.41400        9.96500       26.31400
H         19.10100       10.57300       26.56300
C         18.71100        8.62900       26.11200
H         19.60300        8.32200       26.22800
Cl        13.11100        3.94500       24.14200
Cl        -2.56600        6.75500       24.32600
Cl        -1.89100        1.57900       24.96900
Cl        19.59800        3.16900       32.68900
C          4.72800       18.65500       17.29400
H          5.02300       17.70200       17.20900
Cl         3.01500       18.82100       16.58500
Cl         5.80800       19.65500       16.36800
Cl         4.69700       19.07000       18.93100
C         -8.25800       -1.34500       16.82300
H         -9.01700       -1.92900       17.11400
Cl        -8.23900       -1.27100       15.09800
Cl        -6.68800       -2.10400       17.36500
Cl        -8.41000        0.18100       17.58700
Cl         8.72700       13.75200       14.27000
C          7.51200       13.17100       15.32500
H          6.83600       13.89500       15.46500
Cl         8.02700       12.59700       16.87700
Cl         6.72000       11.80400       14.49200
Cl         9.14400       18.60300       16.88400
C          8.56600       16.96800       17.18200
H          7.90600       16.71000       16.47500
Cl         7.81000       16.94000       18.71600
Cl         9.97100       15.84400       17.13900
O         13.56600        6.98800       24.53400
O         -3.44900        4.16100       25.78800
O         14.48400       -0.60900       24.08100
O         10.79000        4.79500       26.08800
O         27.28200        8.08600       25.32500
O         11.87500       15.85800       28.33400
