214
C:\Users\Javier\OneDrive - Universitat de Barcelona\Tesi\4 - Contribucions\Treballs\3-PhD\chapter_1\cif\pc2p\DILWEA.pc2p.pdb
Ir        11.67500       -0.96900        6.11200
Ir        10.74600       -2.92300        8.87400
Ru        13.18500       -1.65200        8.40700
S         10.97600       -0.68700        8.32400
S         11.97900       -3.12600        6.95900
P         14.22000       -0.00300        9.50500
P         15.18000       -2.67100        8.49600
C         12.01900       -1.00800        3.94900
C         10.69800       -1.24200        4.16100
C         10.06900       -0.17500        4.88400
C         11.04100        0.78900        5.07800
C         12.24300        0.39400        4.37200
C         12.99500       -1.75300        3.13800
C          9.97000       -2.48400        3.86100
C          8.62500       -0.04400        5.36000
C         10.89900        2.20600        5.69500
C         13.45900        1.11000        4.33700
C          9.41900       -3.05300       10.49000
C         10.39000       -3.95900       10.79000
C         10.43000       -4.87900        9.69700
C          9.42600       -4.57300        8.86800
C          8.76300       -3.44800        9.41500
C          9.03200       -1.91400       11.51300
C         11.32200       -3.97400       11.95400
C         11.29900       -6.09200        9.52100
C          9.01500       -5.33200        7.65200
C          7.51500       -2.63000        8.85100
C         13.81100        0.38000       11.24800
C         14.53500        1.21300       12.07700
C         14.16400        1.44600       13.38200
C         13.12000        0.73000       13.91100
C         12.34200       -0.02900       13.20500
C         12.69500       -0.20500       11.81300
C         14.18000        1.70900        8.76400
C         15.11600        1.88500        7.66900
C         15.11400        3.17000        6.94700
C         14.27800        4.10500        7.44000
C         13.52700        3.93000        8.46300
C         13.45400        2.73200        9.13300
C         16.08000       -0.39400        9.65500
C         16.18300       -1.87000        9.86800
C         15.26700       -4.45600        8.91400
C         15.76000       -5.01100       10.08500
C         15.77700       -6.38400       10.22600
C         15.27300       -7.21700        9.38000
C         14.74300       -6.74900        8.28600
C         14.81400       -5.36200        8.02200
C         16.36400       -2.58600        7.09100
C         17.67000       -3.08200        7.15500
C         18.47200       -2.89300        6.04700
C         18.02400       -2.29400        4.93700
C         16.77400       -1.91400        4.81300
C         15.93000       -2.03100        5.92400
H         13.04100       -2.65400        3.44300
H         12.71100       -1.75300        2.22300
H         13.84800       -1.35000        3.20200
H          9.06000       -2.38900        4.09700
H         10.03300       -2.66900        2.92300
H         10.35700       -3.20500        4.34200
H          8.61600        0.07000        6.30300
H          8.22400        0.71600        4.94900
H          8.14200       -0.82200        5.12700
H         11.73500        2.64600        5.70400
H         10.27300        2.71700        5.18700
H         10.57200        2.13300        6.59400
H         13.78500        1.23200        5.22000
H         14.09500        0.62100        3.82800
H         13.31100        1.95600        3.93200
H          9.69600       -1.86800       12.19200
H          8.99000       -1.08800       11.05100
H          8.19100       -2.11200       11.89700
H         11.91300       -4.70800       11.88500
H         11.83100       -3.16300       11.97000
H         10.82900       -4.03800       12.76600
H         11.14300       -6.69800       10.22900
H         11.11000       -6.50400        8.69000
H         12.21800       -5.82200        9.53500
H          8.15400       -5.72500        7.79300
H          8.96100       -4.73900        6.90600
H          9.64200       -6.01700        7.46300
H          7.79100       -1.74900        8.61400
H          7.17800       -3.06500        8.06800
H          6.83500       -2.58700        9.50300
H         15.29900        1.64800       11.73300
H         14.63500        2.08800       13.90400
H         12.95900        0.80100       14.84700
H         11.57200       -0.44000       13.57600
H         12.13300       -0.74700       11.25700
H         15.71300        1.19100        7.41000
H         15.65300        3.33200        6.18800
H         14.25800        4.95700        7.01900
H         12.98200        4.65700        8.77300
H         12.87100        2.63400        9.88600
H         16.53300       -0.14900        8.85800
H         16.45700        0.06700       10.39200
H         15.82700       -2.11200       10.71600
H         17.09000       -2.15300        9.81700
H         16.08300       -4.45000       10.76900
H         16.17300       -6.74400       11.01600
H         15.29700       -8.15000        9.55200
H         14.30500       -7.34100        7.66800
H         14.52100       -5.04900        7.17200
H         17.99000       -3.53500        7.92700
H         19.37200       -3.19100        6.07900
H         18.63200       -2.13100        4.22400
H         16.44400       -1.55900        3.99200
H         15.03200       -1.72400        5.87100
Ir         3.03400        0.12300       -2.27800
Ir         2.46200        2.06900        0.65800
Ru         4.64300        0.45300       -0.01900
S          3.62600        2.17200       -1.38200
S          2.32600       -0.15500       -0.10000
P          6.73500        1.23300        0.18300
P          5.40400       -1.31300        1.11100
C          2.10300        0.48200       -4.16100
C          3.46100        0.20500       -4.45000
C          3.68800       -1.12500       -3.97900
C          2.51700       -1.68000       -3.49100
C          1.49300       -0.64300       -3.59700
C          1.37500        1.81200       -4.49600
C          4.46900        1.11000       -4.95400
C          5.05500       -1.88500       -4.07300
C          2.20200       -2.98000       -2.90900
C          0.01500       -0.74500       -3.29700
C          1.81700        4.16400        1.07500
C          2.21100        3.57900        2.27400
C          1.34500        2.46900        2.53000
C          0.42900        2.35200        1.48100
C          0.77700        3.41900        0.58200
C          2.51600        5.37600        0.51100
C          3.28600        4.10500        3.20900
C          1.30300        1.68000        3.75500
C         -0.63100        1.31500        1.30500
C         -0.06600        3.71100       -0.75800
C          7.81700        1.38800       -1.29100
C          7.32200        1.05200       -2.55600
C          8.12800        1.08100       -3.63200
C          9.44700        1.59200       -3.52600
C          9.99800        1.87000       -2.36300
C          9.14200        1.78200       -1.25200
C          7.04400        2.93600        0.91700
C          6.32100        3.97400        0.38800
C          6.63100        5.31800        0.84600
C          7.49500        5.43500        1.83400
C          8.18800        4.47000        2.32700
C          7.96400        3.14100        1.92200
C          7.70600        0.14600        1.29900
C          7.21700       -1.28600        1.06700
C          5.08300       -1.51900        2.91400
C          5.68100       -2.57100        3.59700
C          5.36200       -2.54200        5.02500
C          4.68100       -1.70900        5.67700
C          4.19800       -0.68700        4.93700
C          4.32600       -0.52600        3.54400
C          4.96900       -3.03900        0.46400
C          3.93800       -3.74000        1.02300
C          3.66200       -5.05500        0.54700
C          4.43100       -5.46400       -0.45800
C          5.37200       -4.83600       -1.11100
C          5.71900       -3.53500       -0.61700
H          1.99000        2.42200       -4.87500
H          0.67100        1.64100       -5.11800
H          1.00300        2.17800       -3.70200
H          5.12600        1.25100       -4.29100
H          4.87000        0.72500       -5.72800
H          4.06200        1.93400       -5.18900
H          5.30200       -2.18800       -3.20900
H          4.95700       -2.63000       -4.65500
H          5.71700       -1.30000       -4.40900
H          1.97900       -2.88400       -1.99800
H          1.45300       -3.35900       -3.37800
H          2.94400       -3.56800       -3.00300
H         -0.24300       -0.03900       -2.69900
H         -0.48300       -0.66300       -4.09900
H         -0.17600       -1.57900       -2.88400
H          3.17200        5.68600        1.12800
H          2.95200        5.13500       -0.30500
H          1.88800        6.06100        0.34200
H          3.93800        3.43200        3.36200
H          3.70900        4.86900        2.82600
H          2.89300        4.35600        4.04100
H          1.10900        2.24700        4.49800
H          0.63300        1.01200        3.68700
H          2.15000        1.26500        3.89600
H         -1.22500        1.35100        2.05200
H         -1.11600        1.49000        0.51100
H         -0.23200        0.46000        1.26200
H         -0.45200        4.57800       -0.69500
H          0.52100        3.68000       -1.50000
H         -0.74100        3.06200       -0.84500
H          6.41300        0.79800       -2.66600
H          7.81000        0.77300       -4.47800
H          9.95800        1.71700       -4.31100
H         10.90600        2.13600       -2.27400
H          9.49400        1.99700       -0.40000
H          5.64300        3.82800       -0.26800
H          6.23900        6.08800        0.46000
H          7.62500        6.29600        2.20900
H          8.85200        4.66200        2.97800
H          8.43400        2.41900        2.31100
H          8.63100        0.21300        1.09700
H          7.56100        0.39700        2.20600
H          7.56000       -1.85400        1.74500
H          7.51800       -1.58900        0.21900
H          6.24000       -3.21800        3.19300
H          5.72900       -3.25600        5.54300
H          4.51900       -1.78500        6.61200
H          3.70500       -0.01600        5.39900
H          3.94600        0.19400        3.07300
H          3.42400       -3.34700        1.71400
H          2.96900       -5.58800        0.93100
H          4.26700       -6.36200       -0.73500
H          5.80800       -5.21800       -1.87200
H          6.42200       -3.03600       -1.01200
