100
C:\Users\Javier\OneDrive - Universitat de Barcelona\Tesi\4 - Contribucions\Treballs\3-PhD\chapter_1\cif\pc2p\DOQBEQ.pc2p.pdb
Ru         3.33600        2.98000        5.61300
P          4.70700        1.30800        6.42800
P          1.69400        1.37100        5.82400
N          3.77700        2.12100        3.68400
O          4.40500       -1.31700        2.72600
O          4.62700       -1.25400        0.50300
C          3.98000        1.50500        2.73800
C          4.22200        0.72000        1.59900
C          4.42900       -0.64900        1.72400
C          4.76900       -2.70400        0.42200
C          3.45900       -3.31600        0.18100
C          1.90100        4.72400        5.68800
C          2.17200        4.46100        4.36600
C          3.07500        5.24500        3.44100
C          4.50900        5.37000        3.87300
C          4.94900        4.43000        4.99200
C          4.68500        4.63100        6.33500
C          3.90300        5.79600        6.91500
C          2.48100        5.91900        6.40800
C          3.95200       -0.29500        5.91100
C          2.47800       -0.24700        6.32900
C          4.89900        1.05100        8.23600
C          4.28000        1.85000        9.17700
C          4.42900        1.57800       10.53900
C          5.17300        0.50800       10.96300
C          5.78500       -0.30600       10.03200
C          5.65900       -0.04100        8.68000
C          6.44700        1.31200        5.85500
C          7.35800        2.12200        6.52000
C          8.66500        2.25000        6.03200
C          9.02800        1.57000        4.88000
C          8.14700        0.77200        4.18900
C          6.84800        0.63400        4.68900
C          0.36100        1.51600        7.07700
C         -0.82700        0.78300        6.97800
C         -1.79200        0.83400        7.96100
C         -1.57100        1.60900        9.06100
C         -0.43200        2.35000        9.18400
C          0.54000        2.29100        8.19800
C          0.72500        1.03000        4.29100
C         -0.29500        1.88700        3.95500
C         -0.98800        1.71200        2.77200
C         -0.71500        0.69000        1.93100
C          0.31100       -0.16100        2.23300
C          1.06100       -0.02500        3.45100
C          6.36800        0.89800       19.34900
C          6.58900       -0.29400       18.75800
C          5.11000        1.20800       19.86800
H          3.00400        3.29900        7.12900
H          4.31000        1.32200        0.78800
H          5.08800       -3.01900        1.22200
H          5.39900       -2.94500       -0.31600
H          3.13600       -3.03100       -0.54100
H          2.84400       -3.29500        0.75300
H          3.64200       -4.28600        0.02500
H          1.16300        4.46000        5.88200
H          1.85000        3.82900        4.06900
H          2.70000        6.16700        3.35200
H          3.06100        4.79900        2.54700
H          4.65900        6.30900        4.18100
H          5.08900        5.19200        3.07700
H          5.58500        4.03100        4.80300
H          5.27400        4.33200        6.98600
H          4.38700        6.64200        6.69300
H          3.87200        5.69000        7.90900
H          1.89600        6.11300        7.19600
H          2.45100        6.69600        5.78000
H          4.45800       -0.92800        6.26400
H          4.11900       -0.50400        4.98200
H          2.24000       -0.22400        7.32900
H          2.05100       -1.00100        5.98000
H          3.78300        2.60400        8.87600
H          3.91500        2.02200       11.12600
H          5.18600        0.48100       11.95900
H          6.35800       -1.07400       10.23600
H          6.02400       -0.67700        7.97100
H          7.12900        2.76300        7.34800
H          9.28300        2.90300        6.50800
H          9.88500        1.52400        4.60500
H          8.42700        0.30400        3.35000
H          6.30100        0.15600        4.23700
H         -0.97800        0.09400        6.32500
H         -2.60700        0.30900        7.78900
H         -2.18600        1.60600        9.62600
H         -0.18600        2.64500        9.86500
H          1.49300        2.74300        8.36700
H         -0.52000        2.67400        4.60300
H         -1.76600        2.31800        2.60100
H         -1.25500        0.56000        1.09800
H          0.60800       -0.79900        1.74400
H          1.61800       -0.73700        3.64900
H          7.11200        1.56400       19.41900
H          7.49200       -0.52000       18.39000
H          4.96100        2.09200       20.30700
C          5.53600       -1.20800       18.66500
C          4.27800       -0.89800       19.18400
C          4.05700        0.29400       19.77500
H          3.15400        0.52000       20.14300
H          3.53500       -1.56400       19.11400
H          5.68600       -2.09200       18.22600
