74
C:\Users\Javier\OneDrive - Universitat de Barcelona\Tesi\4 - Contribucions\Treballs\3-PhD\chapter_1\cif\pc2p\DOYQUD.pc2p.pdb
Ru         7.08200       -9.36200        6.35000
P          7.65600      -10.05800        4.14100
P          9.33300       -9.82200        6.73500
O          7.33700      -12.41200        6.60800
C          6.61800      -10.59200        8.06700
C          6.52900      -11.30000        6.80300
C          6.97300      -13.62700        7.05800
C          7.42400      -14.73400        6.45300
C          7.12100      -16.00100        6.82100
C          6.28300      -16.17200        7.93600
C          5.80600      -15.06500        8.56900
C          6.12900      -13.77500        8.18200
C          4.90000       -8.86300        6.68900
C          5.14900       -8.71200        5.27200
C          5.27800       -7.35700        4.65800
C          6.30600       -6.45300        5.35700
C          7.35600       -7.21400        6.17400
C          7.26000       -7.51000        7.49200
C          6.00500       -7.27400        8.32400
C          4.71900       -7.68800        7.60600
C          7.56200       -9.05600        2.58900
C          8.36500       -7.76800        2.61700
C          6.79500      -11.57100        3.58100
C          7.14100      -12.20600        2.23900
C          9.45000      -10.54500        4.07200
C          9.93000      -10.98900        5.46100
C         10.47800       -8.41100        6.55700
C         11.99900       -8.70200        6.74600
C          9.91300      -10.64000        8.27600
C          9.81700       -9.84200        9.56100
H          7.31400      -10.81800        8.68100
H          5.82200      -10.41900        8.54500
H          6.01200      -11.46300        6.94000
H          7.90500      -14.67100        5.66600
H          7.39700      -17.07300        6.58100
H          6.06200      -17.05000        8.24500
H          5.21800      -15.18600        9.29900
H          5.79800      -13.01900        8.64900
H          4.48900       -9.83700        7.01700
H          5.04900       -9.59600        4.70900
H          5.52500       -7.46200        3.75200
H          4.42900       -6.93000        4.70000
H          6.75100       -5.94900        4.69000
H          5.85000       -5.86600        5.94200
H          7.94300       -7.05800        5.74700
H          8.15900       -7.62300        8.10800
H          6.08200       -7.77600        9.13400
H          5.94700       -6.35000        8.53400
H          4.08000       -7.91700        8.26000
H          4.40800       -6.95500        7.09100
H          7.88100       -9.58800        1.87000
H          6.65300       -8.83300        2.42200
H          9.28200       -7.97200        2.77000
H          8.26300       -7.31700        1.78700
H          8.05400       -7.21400        3.32200
H          6.96700      -12.18400        4.29600
H          6.02900      -11.26500        3.53900
H          8.02600      -12.55500        2.28600
H          6.53600      -12.90900        2.04100
H          7.09200      -11.54900        1.55100
H          9.55300      -11.25700        3.45000
H          9.96400       -9.79900        3.78600
H          9.59300      -11.85500        5.63900
H         10.87800      -11.00900        5.48100
H         10.34900       -8.06200        5.67400
H         10.23400       -7.75800        7.19500
H         12.48000       -7.88400        6.73800
H         12.29800       -9.25700        6.03900
H         12.14500       -9.13900        7.58000
H          9.41000      -11.43300        8.38200
H         10.82900      -10.85600        8.16900
H          8.90900       -9.49500        9.63800
H         10.40400       -9.10400        9.55100
H          9.98800      -10.38400       10.31500
