74
C:\Users\Javier\OneDrive - Universitat de Barcelona\Tesi\4 - Contribucions\Treballs\3-PhD\chapter_1\cif\pc2p\DOYRAK.pc2p.pdb
Ru         7.03300       -9.61000        6.11500
S          7.46500      -13.02600        6.32900
P          7.65400      -10.23800        3.90100
P          9.29900       -9.95900        6.49400
C          6.57300      -10.84500        7.82700
C          6.39100      -11.63400        6.63400
C          6.73400      -14.40600        7.17500
C          7.05900      -15.68500        6.71000
C          6.57000      -16.80900        7.33700
C          5.73300      -16.68100        8.43900
C          5.40000      -15.40800        8.91100
C          5.89600      -14.27500        8.29200
C          4.85000       -9.14600        6.44000
C          5.09700       -9.00500        5.06900
C          5.21000       -7.63200        4.42200
C          6.19200       -6.69500        5.14400
C          7.28500       -7.43200        5.91600
C          7.16100       -7.77600        7.28400
C          5.90000       -7.54300        8.11300
C          4.62100       -7.97000        7.36500
C          7.63100       -9.16900        2.38600
C          8.43400       -7.87000        2.47600
C          6.68500      -11.67200        3.23600
C          7.12200      -12.33900        1.96600
C          9.43100      -10.75500        3.83800
C          9.99600      -11.09300        5.22500
C         10.40000       -8.48000        6.30900
C         11.89900       -8.69500        6.59100
C          9.90200      -10.71900        8.05300
C          9.67800       -9.87700        9.29400
H          5.70100      -10.46300        8.41000
H          7.30400      -11.17000        8.49000
H          5.45700      -12.12600        6.30500
H          7.69400      -15.79500        5.91300
H          6.74100      -17.83700        7.14400
H          5.51200      -17.44500        9.15100
H          5.00500      -15.18800        9.76500
H          5.60100      -13.43500        8.70400
H          4.41200      -10.00200        6.72100
H          4.82100       -9.85100        4.44700
H          5.49200       -7.71200        3.47900
H          4.24800       -7.09200        4.42900
H          6.56500       -6.00000        4.41100
H          5.73100       -6.09200        5.78900
H          8.13500       -7.28900        5.37300
H          7.94500       -7.78600        7.88900
H          5.98700       -7.92700        9.05400
H          5.70400       -6.66600        8.26300
H          4.26800       -7.12500        6.87800
H          3.77200       -8.27300        8.02100
H          7.88300       -9.71500        1.57300
H          6.74800       -9.02100        2.20200
H          8.20500       -7.29700        1.71600
H          9.38100       -8.21100        2.56100
H          7.99100       -7.29400        3.18600
H          5.70200      -11.41400        3.30500
H          6.52000      -12.26400        3.90000
H          7.27800      -11.67800        1.29200
H          6.42500      -12.92300        1.65500
H          7.90600      -12.84100        2.10700
H          9.56300      -11.47000        3.13700
H         10.08800       -9.88400        3.44400
H         11.00300      -11.08800        5.16900
H          9.67600      -11.96500        5.46500
H         10.31400       -8.12200        5.29800
H          9.99500       -7.71900        6.85200
H         12.39900       -7.75300        6.40400
H         12.02800       -8.93900        7.54700
H         12.27600       -9.34100        6.09800
H          9.36400      -11.53900        8.23700
H         10.85000      -10.92200        7.90200
H         10.20300       -9.03600        9.20100
H          9.85800      -10.36300       10.12000
H          8.78100       -9.56700        9.40900
