57
C:\Users\Javier\OneDrive - Universitat de Barcelona\Tesi\4 - Contribucions\Treballs\3-PhD\chapter_1\cif\pc2p\DPEPDC.pc2p.pdb
Pd         1.26000        4.75200        5.55700
Cl         2.77900        5.77800        4.06900
Cl        -0.64600        5.66500        4.51300
P         -0.04100        3.65700        7.00400
P          2.97100        3.89200        6.69400
C          1.00400        2.50100        7.96500
C          2.31200        3.19700        8.26600
C         -1.39500        2.65400        6.34700
C         -1.19300        1.33600        5.97700
C         -2.23100        0.59000        5.40200
C         -3.44400        1.14800        5.20400
C         -3.66000        2.45900        5.53200
C         -2.64500        3.22100        6.12000
C         -0.78000        4.77900        8.20900
C         -1.51700        4.29200        9.26700
C         -2.11600        5.16600       10.14000
C         -1.97500        6.52600       10.00000
C         -1.22000        7.01000        8.96000
C         -0.63100        6.14400        8.06000
C          4.32100        4.99100        7.17400
C          4.15500        5.84500        8.23200
C          5.22800        6.66000        8.63400
C          6.38100        6.66100        8.03000
C          6.53200        5.87300        6.90600
C          5.46400        5.04800        6.45400
C          3.71200        2.48700        5.83100
C          4.68200        1.69800        6.40200
C          5.25100        0.64000        5.77000
C          4.85000        0.33500        4.50500
C          3.89600        1.07200        3.89300
C          3.29500        2.17200        4.54400
H          1.07700        1.64200        7.46400
H          0.28500        2.16900        8.65600
H          3.00500        2.61900        8.59700
H          2.14500        4.15300        8.92400
H         -0.15600        0.88300        6.16800
H         -2.09000       -0.52700        5.15500
H         -4.16300        0.48000        4.76800
H         -4.60600        3.09900        5.37800
H         -2.62300        4.24600        6.39200
H         -1.59800        3.33100        9.41600
H         -2.67800        4.75700       10.81700
H         -2.44700        7.19000       10.63800
H         -1.57400        8.08800        8.71600
H         -0.01900        6.64700        7.24100
H          3.33900        5.60900        8.82000
H          4.63300        7.25200        9.41600
H          7.37100        5.90400        6.28700
H          5.80000        4.74100        5.48300
H          4.71600        1.96800        7.22600
H          5.99500        0.03100        6.28700
H          5.13800       -0.57300        3.93300
H          3.76300        1.30200        3.08400
H          2.67500        2.82000        4.18700
Cl        -4.97900        4.92700        3.07800
C         -3.43500        4.70700        2.53300
Cl        -2.89800        5.93100        1.44400
