67
C:\Users\Javier\OneDrive - Universitat de Barcelona\Tesi\4 - Contribucions\Treballs\3-PhD\chapter_1\cif\pc2p\DUBREY.pc2p.pdb
Pd         9.20600        9.27300       15.44300
Cl         9.59900       10.95300       13.84500
Cl        11.11000        8.02900       14.77400
P          7.28000       10.27700       15.95800
P          8.73000        7.82200       17.09200
O          7.02800        9.52200       20.96200
O          8.53000       11.17500       19.04300
O          7.19900        5.39700       18.35000
C          7.42500       11.83800       16.91500
H          7.47000       12.58300       16.26600
H          6.58900       11.95100       17.43200
C          6.17100       10.77200       14.59200
C          6.31300        9.10900       16.98700
H          5.60100        9.59500       17.47300
H          5.88500        8.42600       16.41100
C         10.66300        7.34700       20.67300
H         10.48100        7.50900       21.59200
C         11.84600        6.72500       20.30900
H         12.47300        6.45900       20.97200
C          8.33200        6.17600       16.39800
H          7.47100        6.24000       15.91400
H          9.02900        5.94000       15.73500
O          7.00300        6.66200       20.87600
C          4.35800       11.63100       12.64000
H          3.73400       11.92400       11.98800
C          8.23000        5.04100       17.42200
H          8.00600        4.19000       16.96800
H          9.09200        4.92800       17.89500
C          6.24900        7.41900       21.80100
H          6.11000        6.89500       22.62900
H          5.36200        7.63100       21.41500
C          5.10300        9.94800       14.19000
H          4.99600        9.08800       14.58000
C          4.21500       10.38400       13.23700
H          3.49200        9.82500       12.98300
C          6.33100       12.01300       13.97000
H          7.06500       12.56800       14.20500
C          9.99800        7.49300       18.35200
C          8.59000       11.99500       17.88100
H          9.42900       11.79200       17.39600
H          8.63300       12.94200       18.16800
C          7.65900       10.76900       21.24400
H          8.60100       10.61500       21.50700
H          7.19700       11.21400       21.99700
C          5.41900       12.43900       13.00900
H          5.52700       13.29000       12.60100
C          7.61200       11.65000       20.03100
H          6.69500       11.65500       19.65900
H          7.84700       12.57900       20.28400
C          7.26200        8.43500       17.98200
H          6.80000        7.68200       18.42700
H          7.53700        9.08500       18.67600
C         12.10900        6.49300       18.95400
H         12.92000        6.07200       18.69700
C         11.19400        6.87300       17.98700
H         11.38200        6.71000       17.07000
C          6.43700        5.38300       20.59600
H          5.52000        5.49000       20.23800
H          6.38700        4.84500       21.42600
C          6.98200        8.68900       22.11800
H          6.52200        9.16500       22.85500
H          7.90300        8.47800       22.41400
C          7.30800        4.69300       19.58500
H          8.25000        4.69000       19.89200
H          7.01600        3.75400       19.46800
C          9.73400        7.73600       19.70800
H          8.92800        8.16400       19.96900
