124
C:\Users\Javier\OneDrive - Universitat de Barcelona\Tesi\4 - Contribucions\Treballs\3-PhD\chapter_1\cif\pc2p\DULMUV.pc2p.pdb
C          8.56600        6.41800        9.83500
H          8.24100        7.30800        9.90400
C          7.96200        5.25600       10.46300
C          8.74200        4.12400       10.05000
C          9.79500        4.57600        9.15500
C          9.71400        6.02200        9.10400
C          6.88000        5.27100       11.45800
C          6.05600        4.15600       11.66800
C          6.10400        2.96400       10.74400
H          5.33300        2.37400       10.93900
H          6.01600        3.27700        9.80900
C          7.37200        2.16900       10.87500
C          8.61300        2.74300       10.57200
C          6.69400        6.41600       12.23700
H          7.22900        7.18500       12.07800
C          5.74100        6.44000       13.23800
H          5.60900        7.23000       13.74800
C          4.97700        5.31600       13.49900
H          4.35000        5.31900       14.21300
C          5.13100        4.18700       12.71300
H          4.59900        3.42000       12.88700
C          7.31200        0.84300       11.30600
H          6.47000        0.44500       11.49000
C          8.46900        0.10000       11.47000
H          8.41600       -0.81200       11.73100
C          9.69100        0.68200       11.25300
H         10.48400        0.18000       11.40200
C          9.77900        1.99100       10.82300
H         10.63300        2.38800       10.69500
C         10.84000        3.74200        8.50500
C         12.18500        4.13500        8.57000
C         12.56700        5.40600        9.28900
H         12.18900        5.38500       10.20300
H         13.55300        5.44700        9.36900
C         12.08100        6.64200        8.58500
C         10.71200        6.94900        8.52400
C         10.52100        2.54900        7.86000
H          9.61300        2.27300        7.80900
C         11.50700        1.75900        7.29100
H         11.27200        0.94300        6.86600
C         12.82200        2.15100        7.34300
H         13.49700        1.61700        6.93900
C         13.15800        3.33300        7.98400
H         14.06900        3.59900        8.02700
C         12.99800        7.54600        8.04700
H         13.92500        7.34300        8.08200
C         12.58800        8.73100        7.46200
H         13.22500        9.31300        7.06300
C         11.24300        9.06100        7.46400
H         10.95400        9.88600        7.09000
C         10.32000        8.18400        8.01100
H          9.40200        8.42900        8.03800
C          5.37300        5.99000        5.93100
H          4.48100        5.63400        5.68900
H          5.40100        6.94600        5.67600
C          6.44200        5.23300        5.16600
H          6.46300        5.53400        4.22300
H          6.25000        4.26200        5.18100
C          4.34100        4.64500        8.29200
C          4.10000        3.48500        7.54500
H          4.51700        3.37300        6.69900
C          3.25800        2.50100        8.03100
H          3.09700        1.72000        7.51400
C          2.65100        2.64600        9.26400
H          2.09800        1.95300        9.60700
C          2.85000        3.80800       10.00000
H          2.41200        3.92200       10.83400
C          3.68700        4.79900        9.51700
H          3.81900        5.59200       10.02400
C          4.88200        7.40300        8.34100
C          3.60100        7.73500        7.87600
H          3.14200        7.14600        7.29000
C          3.00600        8.91700        8.27000
H          2.13600        9.13300        7.95800
C          3.67200        9.78900        9.11700
H          3.25900       10.60200        9.38200
C          4.93100        9.47400        9.56900
H          5.38900       10.07200       10.14700
C          5.53500        8.28200        9.18200
H          6.40500        8.07100        9.50000
C          9.27000        4.54600        5.06800
C          8.86400        3.52700        4.20500
H          7.94000        3.33600        4.09500
C          9.81400        2.79400        3.50400
H          9.53500        2.10300        2.91300
C         11.15700        3.06100        3.65700
H         11.79900        2.56600        3.16300
C         11.57000        4.05500        4.53400
H         12.49600        4.23300        4.65000
C         10.62900        4.78500        5.23800
H         10.91400        5.45800        5.84500
C          8.41800        7.27400        5.40500
C          7.83200        8.34700        6.07600
H          7.26100        8.18300        6.81900
C          8.07400        9.64800        5.67100
H          7.67100       10.37200        6.13500
C          8.89600        9.89600        4.59300
H          9.08400       10.79000        4.33200
C          9.44600        8.84000        3.89200
H          9.98900        9.01100        3.13100
C          9.21000        7.53100        4.29200
H          9.59200        6.81100        3.80400
P          5.62500        5.83100        7.76900
P          8.06900        5.57000        5.97500
N          7.24300        3.25900        7.59400
C          6.99500        2.16100        7.49100
C          6.68800        0.74000        7.48600
H          7.23300        0.28900        6.80900
H          5.73800        0.61200        7.28000
H          6.88300        0.36100        8.36900
Ru         7.80500        5.10600        8.21200
P          4.79200        0.67600        3.95500
F          3.60600        1.27400        3.24200
F          4.12000        0.59600        5.34300
F          4.48500       -0.78700        3.59100
F          6.25000        0.21100        4.70600
F          5.73000        0.80500        2.61100
F          5.33700        2.17300        4.27300
F          3.24600        1.39000        3.77800
F          4.19000        0.19400        5.42100
F          3.94000       -0.66500        3.36500
F          6.01800       -0.13500        4.20300
F          5.08200        1.07900        2.48300
F          5.25500        2.01400        4.63700
