67
C:\Users\Javier\OneDrive - Universitat de Barcelona\Tesi\4 - Contribucions\Treballs\3-PhD\chapter_1\cif\pc2p\EFEGUS.pc2p.pdb
Pd         5.15700        5.31100        3.67800
Cl         2.98900        5.38100        2.74200
Cl         4.52100        6.17400        5.80200
P          5.97700        4.59800        1.77300
P          7.25800        5.09100        4.45800
O          5.78100        3.05100        1.38300
O          5.39100        5.41600        0.52900
C          8.24800        4.21700        3.16900
H          9.19100        4.41300        3.28600
H          8.12300        3.25700        3.25000
C          7.78100        4.69200        1.78700
H          8.15300        4.12600        1.09400
H          8.07200        5.60400        1.62900
C          7.33400        4.04200        5.94100
C          6.58700        2.86600        5.92200
H          6.09900        2.64300        5.16100
C          6.56300        2.02100        7.02500
H          6.06600        1.23700        7.00200
C          7.28200        2.35100        8.15800
H          7.25900        1.79500        8.90300
C          8.03100        3.50600        8.17800
H          8.52600        3.71900        8.93800
C          8.05700        4.35500        7.08100
H          8.56300        5.13600        7.11100
C          8.09900        6.67200        4.79600
C          7.38000        7.86800        4.75700
H          6.47400        7.85600        4.54500
C          8.01200        9.07800        5.03300
H          7.53100        9.87300        4.99700
C          9.35100        9.09900        5.35900
H          9.76600        9.90600        5.56500
C         10.08600        7.91300        5.38200
H         10.99300        7.93200        5.58600
C          9.46600        6.70200        5.10200
H          9.95800        5.91200        5.11700
C          5.57800        4.92600       -0.78800
C          6.39800        5.70300       -1.62800
H          6.79700        6.48100       -1.30900
C          6.59900        5.29700       -2.91400
H          7.11400        5.81900       -3.48600
C          6.27200        3.61800       -4.71600
H          6.79200        4.13100       -5.29100
C          5.75300        2.43200       -5.15800
H          5.89900        2.15800       -6.03500
C          5.00300        1.63500       -4.28400
H          4.69600        0.80800       -4.57700
C          4.71100        2.04600       -3.00200
H          4.19500        1.50800       -2.44700
C          4.92200        3.77900       -1.19200
C          6.03100        4.08500       -3.39000
C          5.20300        3.30300       -2.52300
C          4.47900        2.65000        0.99000
C          3.73900        1.85900        1.87900
H          4.11200        1.58100        2.68400
C          2.46200        1.50200        1.54800
H          1.97900        0.94700        2.11600
C          0.50000        1.71400        0.04900
H         -0.00500        1.19200        0.62800
C         -0.08400        2.22300       -1.07600
H         -0.97800        2.04300       -1.25500
C          0.66300        3.02200       -1.96700
H          0.25500        3.38200       -2.72300
C          1.99000        3.26700       -1.72000
H          2.47500        3.78600       -2.32100
C          4.02000        3.03600       -0.24800
C          1.86300        1.97100        0.34700
C          2.64200        2.74700       -0.56900
