100
C:\Users\Javier\OneDrive - Universitat de Barcelona\Tesi\4 - Contribucions\Treballs\3-PhD\chapter_1\cif\pc2p\EMISOL.pc2p.pdb
Ru         0.17800        3.86300        3.60500
P         -1.93800        4.65700        3.04200
P          0.80800        4.85600        1.62500
F         -3.63300        3.52800        5.27900
F         -4.60500        5.93600        2.41600
F          1.64600        5.43100       -1.27300
F         -0.34200        7.43900        2.67300
N         -0.30800        2.16300        2.52200
C         -0.61800        1.19000        2.01400
C         -1.05700       -0.03700        1.41000
H         -1.76700       -0.43400        1.95600
H         -0.30200       -0.66100        1.35200
H         -1.40000        0.14600        0.51000
C         -3.17900        3.31500        2.97500
C         -3.84400        2.88500        4.11500
C         -4.73100        1.83200        4.12000
H         -5.19300        1.59200        4.91400
C         -4.93200        1.13700        2.95000
H         -5.52500        0.39500        2.94000
C         -4.28400        1.50800        1.79700
H         -4.42600        1.02000        0.99500
C         -3.42400        2.59800        1.80300
H         -2.99400        2.85800        0.99600
C         -2.82400        5.95700        3.96900
C         -4.04500        6.45700        3.54400
C         -4.73900        7.45400        4.19100
H         -5.57600        7.76100        3.86100
C         -4.18300        7.99100        5.33700
H         -4.63300        8.69100        5.79900
C         -2.97600        7.51500        5.81200
H         -2.60800        7.87600        6.60900
C         -2.29800        6.51300        5.13100
H         -1.46300        6.20400        5.46100
C         -1.95000        5.36100        1.32900
H         -2.74600        5.02600        0.84600
H         -2.01700        6.34700        1.38300
C         -0.69100        4.98400        0.55000
H         -0.52800        5.66500       -0.15000
H         -0.83800        4.11500        0.09800
C          1.94800        3.93900        0.53200
C          3.07900        3.62300       -1.60400
H          3.24400        3.92200       -2.49000
C          2.22400        4.31900       -0.77300
C          3.69100        2.47500       -1.11200
H          4.29300        1.98600       -1.66100
C          3.42600        2.05100        0.17000
H          3.83500        1.25800        0.49500
C          2.57000        2.77000        0.99200
H          2.40400        2.46600        1.87700
C          1.57700        6.52300        1.66000
C          0.91900        7.60800        2.21700
C          1.46300        8.86800        2.33500
H          0.96800        9.57800        2.72500
C          2.75200        9.07100        1.86500
H          3.14500        9.93400        1.91900
C          3.46800        8.01600        1.31900
H          4.35500        8.15300        1.01000
C          2.88000        6.75700        1.22400
H          3.38000        6.04000        0.85100
C         -0.54000        3.05500        5.60200
C          0.66300        2.42300        5.26000
C          1.85800        3.10300        4.86000
C          2.02200        4.49200        4.67600
C          0.96100        5.40200        4.95000
C          0.68700        0.91800        5.13200
H          1.04800        0.52700        5.95400
H          1.25200        0.66400        4.37200
H         -0.22400        0.58900        4.98600
C          3.33500        4.95600        4.11000
H          3.98200        5.07300        4.83600
H          3.20700        5.81100        3.64600
H          3.67200        4.28800        3.47700
H         -1.27700        2.46600        5.71200
H         -0.61800        3.87800        6.15700
H          2.53700        2.64200        4.60100
H          1.13500        6.19800        4.57500
H          0.62600        5.31300        5.69900
B         -2.58200        1.43200       -2.06000
F         -2.17300        0.13100       -2.20400
F         -3.85000        1.43400       -1.56300
F         -2.52800        2.04900       -3.28200
F         -1.76600        2.10200       -1.17900
Cl         0.58000        8.75200        6.66800
Cl        -0.72300       11.04800        7.81400
C          0.30700       10.07500        7.32300
H          0.85700        9.97900        8.14000
H          0.84100       10.66900        6.73800
Cl        -1.11900       11.56600        4.08200
Cl        -0.72500       10.64100        6.21800
C         -0.03400       11.35800        5.09900
H          0.33000       12.22900        5.40800
H          0.70300       10.81700        4.72700
C         -2.54000       11.06200        4.89300
H         -3.16500       10.47100        5.38000
H         -1.92100       11.41500        5.58000
Cl        -1.68900       10.10600        4.11000
Cl        -3.38200       12.25100        4.53300
C         -2.08000       11.53700        4.32700
H         -1.53300       11.81500        5.10100
H         -1.68100       12.00700        3.54500
