101
C:\Users\Javier\OneDrive - Universitat de Barcelona\Tesi\4 - Contribucions\Treballs\3-PhD\chapter_1\cif\pc2p\ENUMEG.pc2p.pdb
Ru         7.98400        7.70000        6.84900
P          8.72000        8.53000        8.86000
C          5.87500        5.97700        8.02900
N          7.15800        5.90700        7.64600
O          9.70300        6.56700        6.40000
P          8.92100        9.65100        6.01200
C          5.21000        4.85800        8.53600
H          4.29500        4.92100        8.78600
N          5.90000        8.30600        7.08200
O         11.29100        7.99700        6.89000
C          5.88500        3.66000        8.67200
H          5.45900        2.90700        9.06200
N          7.15000        6.83400        5.05900
O         11.78600        6.04200        6.09500
C          7.21300        3.58000        8.22400
H          7.69700        2.76400        8.27300
N         10.96000        6.88800        6.46100
C          7.80200        4.72700        7.70900
H          8.69500        4.67700        7.38700
C          5.23000        7.32300        8.00100
H          5.23000        7.69500        8.91900
H          4.28600        7.21900        7.72100
C          5.29000        8.23800        5.71700
H          4.31000        8.13900        5.80500
H          5.46700        9.08900        5.24100
C          5.82400        7.10400        4.90000
C          5.03100        6.39100        4.01000
H          4.10800        6.59600        3.92000
C          5.60500        5.37100        3.25200
H          5.08200        4.87500        2.63300
C          6.95600        5.09500        3.42100
H          7.37500        4.41200        2.91200
C          7.68500        5.83400        4.34300
H          8.60200        5.62300        4.47200
C          5.65900        9.68800        7.63900
H          6.15300       10.33800        7.07800
H          6.04800        9.72700        8.54800
C          4.20900       10.14000        7.72400
H          3.82200       10.16500        6.82300
H          4.16800       11.03400        8.12300
H          3.70300        9.51100        8.27900
C          7.64300        8.36400       10.33200
C          7.12800        9.48400       11.00600
H          7.34100       10.36200       10.71100
C          6.29700        9.29200       12.12300
H          5.94200       10.04600       12.57800
C          5.98700        8.02000       12.56900
H          5.42000        7.90700       13.32200
C          6.50400        6.90400       11.91500
H          6.30200        6.02900       12.22600
C          7.32100        7.08500       10.79900
H          7.66700        6.32500       10.34800
C         10.24200        7.83000        9.60200
C         11.15600        8.61700       10.29700
H         11.04300        9.56100       10.32500
C         12.23200        8.03200       10.95000
H         12.86000        8.57900       11.40700
C         12.40000        6.64200       10.94000
H         13.12100        6.24200       11.41100
C         11.49600        5.85400       10.23400
H         11.60900        4.91100       10.20700
C         10.42500        6.44300        9.56600
H          9.81400        5.90100        9.08200
C          9.01400       10.33400        8.69500
H          8.15200       10.82000        8.70000
H          9.55900       10.65900        9.45600
C          9.75600       10.58800        7.37000
H         10.69700       10.29400        7.45200
H          9.74900       11.55500        7.16300
C         10.19800        9.53300        4.70800
C         11.21800       10.49500        4.61700
H         11.25000       11.21400        5.23800
C         12.18300       10.39700        3.61600
H         12.88500       11.03600        3.57300
C         12.12800        9.37000        2.67700
H         12.78600        9.31100        1.99500
C         11.10300        8.43000        2.74500
H         11.04500        7.74600        2.08900
C         10.15700        8.49000        3.77200
H          9.48500        7.82200        3.83700
C          7.81700       10.90400        5.23500
C          7.44500       12.10300        5.85100
H          7.80900       12.33000        6.69800
C          6.53600       12.97100        5.22200
H          6.27800       13.77800        5.65200
C          6.01900       12.65700        3.98000
H          5.41200       13.25000        3.55500
C          6.38900       11.47100        3.35300
H          6.03700       11.25800        2.49600
C          7.27200       10.59600        3.97900
H          7.50900        9.78100        3.55200
C          1.88200        3.93000        1.19700
H          2.53300        3.19000        1.10300
H          2.18000        4.67700        0.62200
Cl         0.26600        3.37700        0.67000
Cl         1.83400        4.45900        2.86900
B          5.51400        2.56200        0.17100
F          6.62800        1.78300       -0.03600
F          4.91500        2.69800       -1.07600
F          6.12100        3.89000        0.40900
F          5.06300        2.26600        1.36100
