219
C:\Users\Javier\OneDrive - Universitat de Barcelona\Tesi\4 - Contribucions\Treballs\3-PhD\chapter_1\cif\pc2p\EPONAB.pc2p.pdb
Rh         8.63500        9.21800       15.10100
P          7.66600        7.64200       16.40400
P          7.29000        8.38600       13.44200
C          9.40700       10.52800       16.74100
H          8.73400       11.06500       16.39100
H          9.39600       10.29900       17.64300
C         10.27200       10.13500       16.04600
H         10.99100        9.58500       16.42100
C         10.29600       10.50200       14.58700
C          9.35700       11.11400       14.04600
H          8.84700       10.75400       13.35600
C         11.47800        9.97000       13.82600
H         11.43600        9.01200       13.80100
H         12.28800       10.24400       14.26300
H         11.46300       10.31600       12.93100
C          9.14800       12.36400       14.56100
H          8.78600       12.94000       13.87600
H          9.97400       12.73200       14.87700
H          8.52000       12.31600       15.28900
C          8.76800        6.24300       16.87300
H          8.14900        5.57800       17.24300
C          9.71400        6.48300       17.98100
H          9.21900        6.68100       18.79200
H         10.26600        7.25300       17.77200
C         10.61100        5.26500       18.21800
H         11.23700        5.47800       18.92600
H         10.05500        4.53400       18.53200
C         11.37800        4.78900       17.04600
H         11.95200        5.48900       16.69500
H         11.91800        4.01600       17.26800
C         10.30900        4.44300       16.09000
H          9.78700        3.72200       16.47400
H         10.72700        4.09800       15.28500
C          9.34800        5.55400       15.68100
H          9.82000        6.20200       15.13400
H          8.63100        5.17800       15.14700
C          6.98500        8.28800       17.99900
H          7.75500        8.57300       18.53500
C          6.23000        7.26900       18.84100
H          6.78900        6.48900       18.98600
H          5.43200        6.98500       18.36900
C          5.84100        7.88500       20.19100
H          5.31600        7.24300       20.69500
H          6.64500        8.07700       20.69800
C          5.03700        9.16700       20.02300
H          4.17500        8.95900       19.63000
H          4.88100        9.56600       20.89400
C          5.76300       10.15300       19.14300
H          6.57600       10.44100       19.58800
H          5.20400       10.93400       19.00900
C          6.11900        9.54300       17.78100
H          6.60600       10.19100       17.24800
H          5.30800        9.30500       17.30500
C          6.24500        6.85900       15.53700
H          6.13300        5.95000       15.85500
H          5.43300        7.35000       15.74000
C          6.46500        6.84500       14.02200
H          5.60900        6.75100       13.57600
H          7.01100        6.07900       13.78600
C          8.12700        7.93600       11.86500
H          8.45400        8.77500       11.47700
C          9.36700        7.06500       12.11700
H          9.93500        7.49200       12.77800
H          9.09200        6.20300       12.46800
C         10.14700        6.86600       10.82500
H         10.48500        7.72200       10.51900
H         10.90600        6.28700       10.99500
C          9.29300        6.26300        9.75900
H          9.04800        5.36000       10.01800
H          9.80100        6.20900        8.93500
C          8.02200        7.08100        9.51700
H          7.45800        6.61700        8.87800
H          8.26100        7.94100        9.13600
C          7.24200        7.30000       10.81900
H          6.47900        7.87300       10.64700
H          6.91300        6.44900       11.14600
C          5.88500        9.50300       12.96100
H          5.25000        8.92800       12.48500
C          5.12500       10.02400       14.16100
H          5.74100       10.48300       14.75400
H          4.74300        9.27700       14.64700
C          3.99800       10.99400       13.75000
H          3.29700       10.49600       13.30000
H          3.61500       11.39400       14.54600
C          4.48500       12.06000       12.85800
H          5.14800       12.59500       13.32100
H          3.74700       12.64100       12.61200
C          5.08900       11.46600       11.62400
H          5.39800       12.17800       11.04200
H          4.41500       10.95800       11.14800
C          6.27500       10.54200       11.97900
H          6.60000       10.11300       11.17200
H          6.99800       11.07300       12.34700
H          9.36600       11.26000       13.12700
H          8.64600       11.42400       14.55900
H         12.27400       10.50900       13.95300
H         11.66700        9.04200       14.03600
C         10.88700       10.13500       12.48000
H         10.42300        9.33600       12.23100
H         11.58300       10.31800       11.84500
H         10.26800       10.87400       12.49200
H          8.31100        5.60900       17.46700
C         10.00900        6.88800       17.57300
H         10.45000        7.47700       16.93900
H          9.70100        7.43100       18.31400
C         11.03700        5.87400       18.09700
H         11.80500        6.32400       18.48100
H         10.64100        5.29600       18.76900
C         11.42300        5.10200       16.89500
H         12.03800        4.40200       17.17400
H         11.91000        5.69100       16.30200
H          9.84900        3.78000       16.62800
H         10.67300        4.00600       15.30400
H          6.24300       10.07500       12.24900
C          4.65500        8.90500       12.39400
H          4.23800        8.32000       13.04400
H          4.87000        8.38400       11.60400
C          3.69800       10.05600       12.02500
H          4.06200       10.53100       11.26200
H          2.84600        9.67500       11.75400
C          3.45100       11.03400       13.12700
H          2.93100       10.59100       13.81400
H          2.93000       11.76300       12.77900
C          4.68500       11.59500       13.76200
H          4.44700       12.09300       14.55600
H          5.13000       12.19300       13.14400
C          5.64800       10.44000       14.14700
H          6.49900       10.81200       14.43700
H          5.27500        9.93700       14.88600
F          9.27100       13.03000        8.94400
F          9.09800       11.56500       10.44000
F          7.35200       11.97300        9.22800
F         13.09500        9.50500        6.91800
F         12.67000        8.82800        8.98400
F         12.25600        7.51800        7.44500
F          7.95300       14.53500        3.55600
F          6.41400       13.66300        2.39000
F          8.14200       14.48300        1.45100
F         12.46000       11.19200        1.69500
F         11.56500        9.44000        1.00000
F         11.28500       11.16300       -0.06000
F          3.47500       11.27700        2.82100
F          1.87400       10.21700        3.69400
F          3.12800        9.26300        2.25400
F          4.31200        9.15500        8.85300
F          4.69700        7.21700        8.28400
F          2.74200        7.89700        7.94200
F          9.13600        6.28000        0.47100
F          7.05600        5.96400        0.59500
F          8.37700        4.32400        0.92000
F          9.89700        4.40800        6.53500
F          7.78400        4.39200        6.96000
F          8.65700        3.02000        5.52000
C          8.85000        9.59000        6.15500
C          8.40600       10.52100        7.09600
H          7.57600       10.92000        6.96400
C          9.13800       10.88100        8.22000
C         10.38300       10.32500        8.43700
H         10.88100       10.55300        9.18700
C         10.86400        9.42800        7.51500
C         10.12900        9.06600        6.40700
H         10.49100        8.45500        5.80600
C          8.58300       11.83600        9.17600
C         12.24500        8.83100        7.71500
C          8.49200       10.29600        3.68300
C          7.88900       11.55400        3.51600
H          7.13900       11.76200        4.02600
C          8.36800       12.49900        2.61900
C          9.48700       12.23900        1.84700
H          9.80300       12.86400        1.23700
C         10.12200       11.01800        2.01100
C          9.63400       10.07900        2.90900
H         10.08600        9.27200        2.99800
C          7.70500       13.80600        2.47200
C         11.34900       10.71600        1.21400
C          6.37400        9.27600        5.08500
C          5.44500        9.62100        4.11500
H          5.75500        9.88400        3.27800
C          4.06500        9.59300        4.33400
C          3.57300        9.16200        5.55800
H          2.65700        9.13300        5.71700
C          4.47000        8.77900        6.53500
C          5.84000        8.84100        6.30300
H          6.42100        8.58400        6.98100
C          3.15000       10.05800        3.29800
C          3.97300        8.34600        7.84400
C          8.24600        7.66900        4.34400
C          8.15000        7.26400        3.00300
H          8.00100        7.90700        2.34800
C          8.27000        5.93500        2.62300
C          8.44700        4.94100        3.55600
H          8.53100        4.05200        3.29500
C          8.49700        5.30000        4.89900
C          8.41500        6.63900        5.26300
H          8.47400        6.85600        6.16600
C          8.21400        5.59400        1.16400
C          8.70000        4.27900        5.92400
B          7.99500        9.22000        4.81800
F          7.79500       12.88400        8.61300
F          9.19900       12.37900       10.16200
F          7.42400       11.21600        9.80700
F         13.10100        8.85300        6.74200
F         12.87500        9.60700        8.64700
F         12.23900        7.50200        7.85400
F          8.40000       14.87900        2.86700
F          6.54700       13.97500        3.15500
F          7.33400       14.14300        1.23600
F         12.30600       10.37100        2.02800
F         11.12800        9.74600        0.42900
F         11.78100       11.76200        0.59500
F          3.53500       10.06900        2.04400
F          2.62100       11.28800        3.52600
F          2.07000        9.22900        3.34200
F          3.40600        9.40800        8.50100
F          4.79400        7.74800        8.65300
F          2.89700        7.55200        7.68900
F          8.83400        4.58400        7.20500
F          7.90000        3.19800        5.66800
F          9.94200        3.65600        5.73200
