197
C:\Users\Javier\OneDrive - Universitat de Barcelona\Tesi\4 - Contribucions\Treballs\3-PhD\chapter_1\cif\pc2p\EPONUV.pc2p.pdb
Rh         8.54500       10.20500       18.18300
P          8.98500        9.36000       16.10400
P         10.69500        9.66500       18.63700
C          9.07800       12.16800       20.89200
H          9.40400       11.42000       21.43600
H          8.60100       12.80400       21.46500
H          9.83500       12.61700       20.46400
C          8.16900       11.66300       19.86900
H          8.10100       12.14700       19.05400
C          7.41200       10.53900       20.00900
H          7.48700       10.02800       20.80700
C          6.49300       10.09900       18.97300
H          6.00800        9.29700       19.12800
C          6.27700       10.73900       17.81500
H          6.73600       11.54900       17.62600
C          5.28900       10.16300       16.79700
H          5.55600       10.45400       15.88900
H          5.33900        9.17400       16.82400
C          3.86500       10.59000       17.05000
H          3.78300       11.56400       16.89900
H          3.63000       10.40400       17.99300
C          2.87200        9.83900       16.11500
H          3.16400        9.93700       15.18400
H          1.97600       10.22100       16.21800
H          2.85300        8.89000       16.35300
C         10.82900        8.26700       19.84100
H         11.77200        7.93600       19.82300
C         10.50700        8.68800       21.27500
H          9.57300        9.01400       21.31900
H         11.10400        9.43100       21.54100
C         10.68300        7.52300       22.24800
H         11.63000        7.23200       22.25000
H         10.45000        7.81700       23.16400
C          9.78900        6.35300       21.84400
H          9.96300        5.58500       22.44500
H          8.84100        6.61400       21.94900
C         10.03400        5.93000       20.41400
H          9.38200        5.22700       20.16700
H         10.94200        5.54100       20.34100
C          9.90800        7.09800       19.43400
H          8.96900        7.41000       19.41300
H         10.14900        6.79100       18.52400
C         11.84800       10.95500       19.28500
H         11.49200       11.23400       20.17700
C         11.82700       12.20500       18.39300
H         12.15300       11.97100       17.48800
H         10.89800       12.53600       18.30900
C         12.70800       13.30000       18.98700
H         12.71200       14.08100       18.37900
H         12.32800       13.59000       19.85400
C         14.13800       12.82100       19.19900
H         14.67300       13.54200       19.61500
H         14.54700       12.59600       18.32600
C         14.14700       11.59100       20.10100
H         13.80600       11.83700       20.99700
H         15.07700       11.26700       20.20500
C         13.28100       10.46900       19.51800
H         13.67000       10.16300       18.66000
H         13.27200        9.70000       20.14200
C          9.06600       10.69900       14.79700
H          8.57100       10.38200       13.98800
C          8.42800       11.96600       15.28000
H          8.83900       12.22500       16.14400
H          7.46500       11.80100       15.44200
C          8.57800       13.13700       14.28100
H          7.99500       12.97200       13.49800
H          8.27500       13.97400       14.71400
C          9.95400       13.30900       13.82100
H          9.97300       14.01200       13.12500
H         10.50700       13.62000       14.58000
C         10.52800       12.10700       13.28700
H         11.45900       12.27900       12.99700
H         10.00800       11.80600       12.50000
C         10.50900       11.00200       14.39500
H         10.94000       10.17800       14.05100
H         11.01900       11.31100       15.18400
C         11.56700        9.03900       17.12900
H         12.05700        9.78400       16.70000
H         12.22700        8.35100       17.39400
C         10.57900        8.43600       16.12400
H         10.40700        7.49100       16.36100
H         10.98000        8.45600       15.21900
C          7.80500        8.11400       15.41400
H          6.96700        8.60200       15.16800
C          7.43200        7.07900       16.49600
H          8.24600        6.59100       16.77900
H          7.06500        7.54700       17.28700
C          6.40000        6.08600       15.96400
H          6.20400        5.41100       16.66100
H          5.55800        6.56600       15.75800
C          6.90200        5.39100       14.71500
H          6.20200        4.78200       14.37100
H          7.70000        4.84800       14.93700
C          7.26400        6.41000       13.63800
H          6.44900        6.90300       13.36500
H          7.61600        5.93800       12.84200
C          8.31500        7.40900       14.14200
H          8.50000        8.08100       13.44000
H          9.15800        6.93000       14.34200
C          9.25300       10.67600       14.80400
H          9.50800       10.23300       13.94500
C          8.00400       11.44100       14.59600
H          7.70000       11.82300       15.45800
H          7.29500       10.83600       14.26100
C          8.24200       12.58400       13.57300
H          8.39300       12.18100       12.68300
H          7.41700       13.13000       13.51800
C          9.37100       13.47600       13.88300
H          9.52000       14.10800       13.13500
H          9.18100       13.99800       14.70100
C         10.53700       12.65800       14.07800
H         11.30800       13.24100       14.29700
H         10.74600       12.18500       13.23400
C         10.35300       11.61500       15.21100
H         11.19500       11.11300       15.35200
H         10.11600       12.07000       16.05800
F         14.58700        8.40600       12.52300
F         13.28300        8.80300       14.09800
F         13.28500       10.05400       12.33100
F          9.00800        7.47400        8.87900
F          8.02800        7.99000       10.66600
F          9.28800        9.37600        9.69300
F          6.91600        3.14400       12.59300
F          6.39200        3.36900       10.56000
F          6.31600        1.49100       11.59100
F         11.37200       -0.02200        8.28400
F         11.06600       -1.12400        9.98600
F          9.47300       -0.85000        8.60800
F         13.31600        3.06800        6.21700
F         14.68800        4.66500        5.97400
F         12.63600        5.06600        6.46200
F         17.42500        5.13900       10.88800
F         17.13200        3.09600       11.41700
F         17.87000        3.61900        9.48400
F         15.43900        0.71100       13.81600
F         13.80300       -0.43800       14.30000
F         14.97800        0.54200       15.76800
F         12.15700        3.85600       17.84000
F         12.52300        5.66100       16.74700
F         10.60500        4.76900       16.67900
C         11.57600        5.64900       11.59400
C         12.46300        6.54600       12.21200
H         13.20300        6.19900       12.69600
C         12.29500        7.92700       12.14100
C         11.21300        8.47300       11.47000
H         11.08600        9.41400       11.43200
C         10.32500        7.60800       10.85700
C         10.51400        6.22400       10.90600
H          9.89700        5.65800       10.45600
C         13.32600        8.82000       12.77700
C          9.14900        8.14900       10.11700
C         10.75800        3.05500       11.06300
C          9.41700        3.22800       11.40800
H          9.17100        3.98900       11.92100
C          8.42600        2.32700       11.02800
C          8.74600        1.18300       10.31400
H          8.07400        0.56100       10.06100
C         10.06300        0.97600        9.98100
C         11.04900        1.89200       10.34100
H         11.94900        1.72000       10.08900
C          6.99600        2.60500       11.36600
C         10.47300       -0.25100        9.20900
C         13.20800        4.00500       10.49300
C         12.96800        4.11300        9.11200
H         12.07000        4.14900        8.80600
C         13.99600        4.17100        8.17800
C         15.32100        4.11800        8.57900
H         16.02600        4.14200        7.94300
C         15.58800        4.02700        9.93600
C         14.55500        3.98100       10.87100
H         14.77200        3.93100       11.79400
C         13.66700        4.23700        6.72200
C         16.99800        3.96800       10.42600
C         12.38900        3.51400       13.05500
C         13.14600        2.34400       13.23000
H         13.41800        1.85400       12.46200
C         13.51100        1.87800       14.48700
C         13.11600        2.54600       15.63000
H         13.37400        2.23400       16.49000
C         12.33300        3.68300       15.49200
C         11.97800        4.15000       14.23100
H         11.43700        4.92800       14.16600
C         14.34200        0.63600       14.62400
C         11.92200        4.47600       16.69200
B         11.96600        4.05300       11.55900
F          9.27300        8.39600        8.96400
F          8.04700        7.53200       10.45400
F          8.77900        9.41700       10.70100
F          6.68700        2.50800       12.59800
F          6.67100        3.84600       11.12700
F          6.14500        1.91800       10.61300
F         10.81900        0.07600        7.98600
F         11.45000       -0.93500        9.71600
F          9.50700       -1.10700        9.09800
F         14.56600        0.02000       13.53400
F         13.64200       -0.28600       15.35000
F         15.35700        0.78400       15.38900
