92
C:\Users\Javier\OneDrive - Universitat de Barcelona\Tesi\4 - Contribucions\Treballs\3-PhD\chapter_1\cif\pc2p\EQIKIA.pc2p.pdb
Rh        -0.31700        2.04700        4.89100
N          1.25100       -0.81700        4.93700
P          1.16800        2.61500        6.48000
P          0.92000        3.39000        3.53400
S         -2.50500        2.96500        4.76500
B         -0.06100       -0.01400        4.84300
B         -2.46100        1.57800        6.08300
H         -2.82500        1.95300        7.01100
B         -2.12300        1.68000        3.33600
H         -2.27900        2.17200        2.39300
B         -0.95600        0.25700        3.41800
H         -0.56800       -0.03800        2.47200
B         -1.22500        0.20400        6.09400
H         -1.02800       -0.14800        7.14100
B         -3.54400        1.29200        4.55000
H         -4.60300        1.50800        4.44500
B         -1.56700       -0.86000        4.68300
H         -1.52800       -1.92600        4.66700
B         -2.90600       -0.02100        5.49100
H         -3.63100       -0.58700        6.04500
B         -2.71300        0.03500        3.66900
H         -3.33400       -0.49600        2.92500
C          2.22800       -0.56400        4.03500
H          2.03500        0.04400        3.40200
C          3.43200       -1.22800        4.06800
H          4.06000       -1.04200        3.47400
C          3.64600       -2.18900        5.04300
H          4.45300       -2.64600        5.06000
C          2.64500       -2.45600        5.95000
H          2.75700       -3.03500        6.65000
C          1.45800       -1.75400        5.88100
H          0.73800       -1.91500        6.52900
C          1.87400        1.33100        7.57100
C          3.14000        0.77900        7.36700
H          3.69800        1.10800        6.67500
C          3.60800       -0.23800        8.18900
H          4.50100       -0.64400        8.02200
C          2.82400       -0.71500        9.22100
H          3.11100       -1.39900        9.74800
C          1.57300       -0.17600        9.44000
H          1.05000       -0.47300       10.11000
C          1.09200        0.84400        8.62400
H          0.24800        1.21800        8.74900
C          0.70300        3.90100        7.70600
C         -0.46000        4.64300        7.52400
H         -1.05100        4.44800        6.78800
C         -0.78700        5.66900        8.41000
H         -1.56900        6.16800        8.28200
C          0.03100        5.94700        9.48700
H         -0.19800        6.58800        9.98100
C          1.18700        5.21100        9.68900
H          1.73300        5.34700       10.38900
C          1.52600        4.19400        8.80600
H          2.34400        3.70600        8.94900
C          0.18200        4.80400        2.64200
C          0.56600        5.16700        1.35400
H          1.11700        4.58900        0.85900
C          0.10200        6.35100        0.79200
H          0.39600        6.55400       -0.01900
C         -0.73900        7.18100        1.49900
H         -1.01800        7.99900        1.15300
C         -1.14500        6.81800        2.76600
H         -1.68900        7.29300        3.22700
C         -0.69900        5.63800        3.33600
H         -0.96900        5.42400        4.17900
C          1.87100        2.50600        2.25700
C          3.25700        2.38900        2.30200
H          3.76500        2.84000        2.95600
C          3.92800        1.58400        1.39100
H          4.83200        1.52800        1.46600
C          3.22800        0.89500        0.42300
H          3.63900        0.38200       -0.22700
C          1.84900        1.02000        0.35200
H          1.39500        0.59100       -0.29900
C          1.17200        1.82100        1.26200
H          0.24000        1.89000        1.23400
C          2.16900        4.27600        4.56600
H          2.90900        4.60800        4.02200
H          1.67400        5.03800        4.94500
C          2.65400        3.35800        5.68000
H          3.18900        3.82400        6.33500
H          3.21100        2.63400        5.32600
C          2.15400        2.08000       12.05200
H          2.11200        1.20300       12.50800
H          1.51800        2.06000       11.29300
Cl         1.67500        3.34500       13.17900
Cl         3.78200        2.33900       11.43800
Cl        -6.39100        6.74300        1.87800
Cl        -4.10400        4.97100        2.16100
C         -4.65800        6.58900        1.94200
H         -4.27400        6.94500        1.10200
H         -4.31600        7.14500        2.68600
