208
C:\Users\Javier\OneDrive - Universitat de Barcelona\Tesi\4 - Contribucions\Treballs\3-PhD\chapter_1\cif\pc2p\EQOKED.pc2p.pdb
C          7.76800        3.63600       11.94400
C          7.20600        2.67100       11.25200
C          7.97600        1.77900       10.34600
C          9.35400        1.41700       10.47200
H          9.92900        1.66000       11.16200
C          9.68300        0.61200        9.33800
H         10.51600        0.24000        9.15900
C          8.52600        0.47500        8.53300
H          8.46900        0.00000        7.73500
C          7.46500        1.19200        9.15700
H          6.59300        1.26500        8.84200
C          7.68800       -1.03500       12.24400
H          7.56000       -0.54800       13.02600
C          8.91900       -1.56900       11.79600
H          9.74400       -1.48100       12.22000
C          8.67100       -2.25900       10.58400
H          9.30100       -2.72200       10.08000
C          7.29200       -2.11700       10.27600
H          6.86300       -2.46000        9.52600
C          6.68800       -1.36400       11.30900
H          5.79000       -1.12900       11.36200
C          5.71500        2.46900       11.29300
C          5.14700        1.49000       12.09800
H          5.69100        1.00600       12.67700
C          3.79700        1.21700       12.06000
H          3.44000        0.55800       12.61000
C          2.96900        1.92500       11.20000
C          3.51500        2.93700       10.40600
H          2.96600        3.43700        9.84700
C          4.87100        3.19400       10.45100
H          5.22700        3.86300        9.91100
C          1.50100        1.40000       11.16300
C          0.45300        1.17100       11.09100
C         -1.05200        0.96800       10.93300
C         -1.98300        1.25400       11.96600
H         -1.78000        1.58300       12.81000
C         -3.28100        0.94800       11.47900
H         -4.07900        1.04200       11.95000
C         -3.15400        0.47400       10.14800
H         -3.84800        0.20300        9.59300
C         -1.77500        0.48700        9.80800
H         -1.40700        0.22600        8.99500
C          5.32200        5.77200       13.03600
C          5.08100        4.60100       13.74700
H          5.79500        4.13500       14.12000
C          3.78000        4.11300       13.91000
H          3.62500        3.35100       14.42100
C          2.73400        4.76700       13.30800
H          1.87400        4.42000       13.37300
C          2.94700        5.93000       12.61200
H          2.22700        6.37900       12.23000
C          4.22200        6.44000       12.47600
H          4.35400        7.23300       12.00900
C          7.02200        7.67100       14.29400
C          6.26000        7.46000       15.42600
H          5.72100        6.70400       15.47900
C          6.28500        8.36800       16.49900
H          5.77200        8.21400       17.25900
C          7.07800        9.48300       16.40900
H          7.11300       10.08500       17.11800
C          7.82500        9.71800       15.27300
H          8.33800       10.49100       15.21200
C          7.81800        8.80100       14.20500
H          8.34100        8.95100       13.45100
C          7.10200        7.43400       11.39900
H          6.21100        7.71100       11.13100
H          7.63400        8.22900       11.55200
C          7.73300        6.59500       10.29800
H          7.94500        7.15500        9.53400
H          7.11400        5.90600       10.00900
C          9.86200        4.78700        9.60000
C          9.16100        4.56600        8.41700
H          8.31400        4.93900        8.31200
C          9.69300        3.80700        7.39900
H          9.20200        3.65400        6.62400
C         10.92500        3.28800        7.53000
H         11.28700        2.78800        6.83500
C         11.66200        3.48600        8.69000
H         12.51400        3.12000        8.76800
C         11.13000        4.22800        9.71800
H         11.62100        4.35800       10.49700
C         10.45300        7.22000       10.92000
C         10.96100        7.65300        9.68700
H         10.73800        7.19800        8.90700
C         11.78600        8.74800        9.63100
H         12.10800        9.04100        8.80900
C         12.14500        9.41700       10.78200
H         12.71000       10.15300       10.73400
C         11.65400        8.98900       12.03100
H         11.89800        9.43300       12.81100
C         10.80700        7.90300       12.08100
H         10.46900        7.62100       12.90000
C          9.14300        3.41000       14.59800
H          8.68000        2.60500       14.65500
C          8.77000        4.62800       15.20600
H          8.01800        4.76700       15.73500
C          9.74100        5.59900       14.86900
H          9.74000        6.49000       15.13400
C         10.71000        4.97200       14.06000
H         11.46600        5.37600       13.69900
C         10.33100        3.62600       13.89600
H         10.79400        2.98800       13.40200
P          7.00700        6.44000       12.94000
P          9.25800        5.83000       10.95400
Fe         8.18100       -0.26800       10.40300
Fe        -2.09400       -0.72400       11.40700
Ru         8.70500        4.87000       12.96600
C         -1.55500       -1.82800       13.06300
H         -1.25700       -1.49800       13.88200
C         -2.90600       -2.07200       12.70700
H         -3.65100       -1.92900       13.24700
C         -2.92800       -2.57200       11.37900
H         -3.68300       -2.81500       10.89500
C         -0.73700       -2.17700       11.95900
H          0.19000       -2.11600       11.92200
C         -1.58400       -2.63700       10.91600
H         -1.30900       -2.93000       10.07600
C          8.48300        2.00200       18.99000
C          7.36000        2.80400       18.89700
H          6.52300        2.39900       18.91200
C          7.42900        4.18600       18.78300
C          8.64900        4.81900       18.72600
H          8.70100        5.74000       18.60800
C          9.80100        4.05300       18.84600
C          9.70900        2.66200       18.97500
H         10.49000        2.16300       19.05300
C          6.16700        4.98400       18.69800
C         11.13900        4.69300       18.76500
C          8.87000        0.17400       20.80100
C         10.12200       -0.28700       21.20900
H         10.74200       -0.53600       20.56200
C         10.47300       -0.38900       22.55300
C          9.58500       -0.00300       23.54000
H          9.81500       -0.06700       24.43800
C          8.35100        0.48200       23.16300
C          7.99400        0.55200       21.83200
H          7.14500        0.86000       21.61000
C         11.85100       -0.85300       22.90900
C          7.33200        0.81500       24.23000
C          6.97400       -0.25600       18.90800
C          6.33800       -1.22300       19.68500
H          6.73000       -1.49300       20.48400
C          5.12800       -1.79400       19.29200
C          4.48600       -1.42000       18.13100
H          3.66300       -1.78500       17.89600
C          5.11500       -0.47800       17.32600
C          6.32100        0.07900       17.72000
H          6.71600        0.71100       17.16400
C          4.51900       -2.88600       20.14400
C          4.52000       -0.04200       16.02800
C          9.45500       -0.42700       18.23800
C          9.67200       -1.80500       18.44800
H          9.28100       -2.21500       19.18600
C         10.44500       -2.56600       17.59400
C         11.05800       -2.01100       16.49100
H         11.59400       -2.52500       15.93100
C         10.85100       -0.66200       16.24100
C         10.06100        0.10800       17.09700
H          9.93400        1.00800       16.90100
C         10.65500       -4.02400       17.90400
C         11.44500       -0.01700       15.03200
F          5.60500        4.89500       17.48400
F          5.23500        4.54800       19.56600
F          6.34600        6.28100       18.94500
F         12.09100        4.03500       19.36800
F         11.16500        5.86600       19.50900
F         11.50100        5.04800       17.61400
F         12.74700        0.12700       22.89500
F         11.88400       -1.37300       24.13600
F         12.32500       -1.77500       22.08400
F          6.68300       -0.29800       24.62700
F          7.86600        1.30600       25.31800
F          6.39800        1.61900       23.83200
F          4.62300       -2.62300       21.45900
F          5.13800       -4.06200       19.95500
F          3.22700       -3.08200       19.90400
F          3.27200       -0.47100       15.83600
F          4.48300        1.28100       15.88000
F          5.22600       -0.50800       14.97500
F         11.67900       -4.22800       18.72100
F         10.88900       -4.73900       16.78300
F          9.56600       -4.57800       18.45800
F         12.28000       -0.84400       14.36500
F         10.49900        0.32700       14.13400
F         12.11700        1.08900       15.28700
B          8.44000        0.37400       19.23500
C          1.56600        1.97900       11.13600
C          0.38000        1.93200       11.09800
C         -1.03000        2.05700       11.04300
C         -1.84900        2.00600        9.88300
H         -1.56100        1.84500        9.01500
C         -3.19000        2.24700       10.28500
H         -3.93400        2.26900        9.72500
C         -3.19900        2.44500       11.69100
H         -3.94900        2.62100       12.21400
C         -1.86300        2.32900       12.15800
H         -1.58500        2.41400       13.04200
Fe        -2.39100        0.56200       11.26900
C         -3.56200       -1.07700       10.96700
H         -4.36200       -1.10100       10.49200
C         -2.26800       -1.31200       10.43200
H         -2.07000       -1.51700        9.54700
C         -1.32900       -1.17700       11.48900
H         -0.40600       -1.27900       11.41600
C         -2.04100       -0.85900       12.67600
H         -1.66900       -0.71700       13.51500
C         -3.42100       -0.79800       12.35000
H         -4.11400       -0.60800       12.94300
