170
C:\Users\Javier\OneDrive - Universitat de Barcelona\Tesi\4 - Contribucions\Treballs\3-PhD\chapter_1\cif\pc2p\EQOKON.pc2p.pdb
C         -6.14400       -8.02200       19.26400
C         -6.29500       -9.27500       20.10400
H         -7.15500       -9.68100       19.91200
H         -5.60500       -9.90800       19.85200
C         -8.58700       -7.82800       19.44500
H         -9.25200       -7.16900       19.23400
H         -8.76700       -8.63200       18.95200
H         -8.61200       -8.01800       20.38600
C         -6.19800       -9.01000       21.59300
C         -5.56200       -9.89100       22.50900
H         -5.18600      -10.71500       22.29600
C         -5.59500       -9.30600       23.80200
H         -5.24700       -9.67800       24.58000
C         -6.25100       -8.05400       23.69400
H         -6.40800       -7.45700       24.38900
C         -6.62800       -7.87400       22.33600
H         -7.07900       -7.13700       21.99000
C         -9.20000      -10.32200       22.26300
H         -9.41500      -10.34100       21.35800
C         -8.51000      -11.33000       22.97600
H         -8.19200      -12.12800       22.62100
C         -8.39200      -10.91500       24.32400
H         -7.98300      -11.39500       25.00800
C         -9.00100       -9.64600       24.45100
H         -9.05900       -9.14500       25.23200
C         -9.50800       -9.27000       23.17800
H         -9.95800       -8.48200       22.97600
C         -3.04700       -8.51700       19.82600
H         -3.28800       -8.71900       20.70100
C         -2.45200       -7.30900       19.37700
H         -2.23800       -6.57900       19.91200
C         -2.23700       -7.40000       17.98100
H         -1.84800       -6.75100       17.44100
C         -2.72300       -8.66000       17.55800
H         -2.72500       -8.97400       16.68200
C         -3.20800       -9.36400       18.69100
H         -3.56600      -10.22300       18.69300
C         -5.50900       -4.69600       20.27500
C         -4.97300       -5.28100       21.41600
H         -4.43400       -6.03400       21.33500
C         -5.23200       -4.75900       22.67000
H         -4.86000       -5.15600       23.42500
C         -6.04200       -3.65100       22.80300
H         -6.22600       -3.30300       23.64500
C         -6.57400       -3.06600       21.68400
H         -7.11800       -2.31700       21.77200
C         -6.31000       -3.57700       20.42300
H         -6.67200       -3.16500       19.67200
C         -3.71500       -4.08600       18.21200
C         -2.76700       -3.74900       19.17900
H         -2.79900       -4.15800       20.01400
C         -1.77700       -2.81300       18.91600
H         -1.15300       -2.59700       19.57200
C         -1.71900       -2.20000       17.67800
H         -1.05800       -1.57200       17.49900
C         -2.64400       -2.52300       16.71100
H         -2.60400       -2.11100       15.87800
C         -3.63800       -3.45800       16.97000
H         -4.25600       -3.66800       16.30800
C         -6.41400       -4.87000       17.48400
H         -7.26100       -5.09000       17.90200
H         -6.40500       -3.91800       17.30000
C         -6.26500       -5.65000       16.17600
H         -5.65100       -5.17900       15.59100
H         -7.12600       -5.69400       15.73100
C         -7.06100       -8.50400       16.32900
C         -8.33300       -8.13400       15.88500
H         -8.49700       -7.25600       15.62400
C         -9.35000       -9.07100       15.83400
H        -10.19800       -8.81200       15.55200
C         -9.12400      -10.38200       16.19700
H         -9.81400      -11.00400       16.15600
C         -7.85900      -10.76700       16.62300
H         -7.69700      -11.65300       16.85700
C         -6.84000       -9.83100       16.70000
H         -6.00000      -10.09100       17.00200
C         -4.68500       -7.72700       14.93900
C         -3.55900       -6.94300       14.64100
H         -3.32400       -6.23700       15.19900
C         -2.79600       -7.22000       13.51800
H         -2.05300       -6.69500       13.32600
C         -3.12800       -8.27000       12.68000
H         -2.61400       -8.44900       11.92600
C         -4.23500       -9.05000       12.97200
H         -4.46200       -9.75900       12.41300
C         -5.00800       -8.78200       14.09200
H         -5.74900       -9.31200       14.27900
P         -5.02700       -5.29700       18.62400
P         -5.64000       -7.36400       16.46600
Fe        -7.49100       -9.55800       23.09100
Ru        -4.47500       -7.48700       18.41300
O         -7.26900       -7.32200       19.08600
C         -6.50400        2.34500       13.12900
C         -6.13100        1.08100       13.60600
H         -5.52100        0.57700       13.11700
C         -6.64800        0.55700       14.79100
C         -7.56300        1.27300       15.54400
H         -7.90200        0.92800       16.33800
C         -7.96200        2.51800       15.08100
C         -7.44100        3.03800       13.90700
H         -7.72400        3.87800       13.62400
C         -6.22700       -0.80100       15.26900
C         -8.96400        3.30000       15.87900
C         -7.31500        2.75000       10.70800
C         -7.54900        1.50800       10.11000
H         -6.93800        0.82100       10.25600
C         -8.65500        1.25400        9.30700
C         -9.59500        2.23900        9.06400
H        -10.33100        2.07800        8.52000
C         -9.40200        3.48000        9.66300
C         -8.29800        3.72100       10.46900
H         -8.20600        4.55800       10.86500
C         -8.79200       -0.09000        8.68100
C         -5.64300        4.56200       11.83800
C         -5.67900        5.43300       10.74600
H         -5.98200        5.11200        9.92700
C         -5.27800        6.75900       10.83900
C         -4.81100        7.27300       12.03100
H         -4.55200        8.16400       12.09800
C         -4.73500        6.42500       13.12600
C         -5.14300        5.09600       13.02600
H         -5.07900        4.54700       13.77400
C         -5.42600        7.65100        9.64900
C         -4.18300        6.93000       14.42300
C         -4.68100        2.27400       11.06500
C         -3.55400        1.97300       11.84500
H         -3.60400        2.07700       12.76800
C         -2.36100        1.52200       11.27900
C         -2.24000        1.34600        9.91100
H         -1.44700        1.03500        9.53600
C         -3.33300        1.64400        9.11600
C         -4.52200        2.10700        9.68400
H         -5.23600        2.31100        9.12400
C         -1.18400        1.22700       12.16100
C         -3.28300        1.44500        7.63900
F         -5.08900       -1.23100       14.71000
F         -6.02300       -0.83800       16.59200
F         -7.14600       -1.74200       15.00300
F         -9.05200        4.55600       15.53700
F        -10.16700        2.75500       15.86300
F         -8.64400        3.31200       17.19300
F         -8.00500       -0.24600        7.62700
F         -8.49600       -1.07800        9.53700
F        -10.04000       -0.36100        8.26900
C        -10.40500        4.54900        9.40200
F        -10.74000        4.66700        8.13100
F        -11.49500        4.45400       10.14300
F         -9.94900        5.81300        9.70900
F         -6.67700        8.08700        9.50200
F         -4.65200        8.72800        9.69600
F         -5.14100        7.03400        8.49400
F         -4.45000        8.16200       14.67500
F         -4.45700        6.17800       15.46900
F         -2.80600        6.90700       14.42800
F         -1.07100        2.10300       13.17600
F         -1.25700        0.00100       12.73300
F         -0.01000        1.25800       11.50000
F         -2.03800        1.35900        7.15800
F         -3.89700        0.31400        7.26300
F         -3.88200        2.42700        6.96700
B         -6.02900        2.97100       11.69400
F        -11.58300        3.92200        8.97500
F        -10.70000        5.17200       10.40300
F        -10.02100        5.24300        8.45700
F         -5.29300        7.28300       15.21900
F         -3.61500        6.10800       15.11000
F         -3.58300        8.03800       14.32500
F         -1.15300        1.93600       13.26900
F         -1.17000       -0.05800       12.49200
F         -0.06000        1.48500       11.51700
