182
C:\Users\Javier\OneDrive - Universitat de Barcelona\Tesi\4 - Contribucions\Treballs\3-PhD\chapter_1\cif\pc2p\EQONOQ.pc2p.pdb
C         -1.17500       -3.69700       19.40700
C         -0.75300       -3.24600       20.59400
C         -0.83300       -4.19400       21.73100
C         -1.85100       -5.18300       21.93000
H         -2.58600       -5.31700       21.37700
C         -1.55600       -5.92900       23.10600
H         -2.04900       -6.64000       23.44500
C         -0.36300       -5.38400       23.66500
H          0.05300       -5.66900       24.44500
C          0.07600       -4.33900       22.83100
H          0.83700       -3.82100       22.97100
C         -2.59200       -2.04700       23.52400
H         -2.48000       -1.40300       22.86200
C         -3.60800       -3.02900       23.58500
H         -4.27800       -3.15400       22.95400
C         -3.43700       -3.77500       24.75300
H         -3.97800       -4.47400       25.04800
C         -2.31800       -3.29000       25.38800
H         -1.96900       -3.62000       26.18300
C         -1.78300       -2.22600       24.66600
H         -1.03100       -1.73000       24.89100
C         -0.21400       -1.88900       20.75700
C          0.23100       -1.26300       21.95500
H          0.23000       -1.64400       22.80200
C          0.68100        0.04700       21.63100
H          1.02300        0.66700       22.23300
C          0.52500        0.24900       20.25100
H          0.74500        1.02100       19.78200
C         -0.02500       -0.92600       19.70600
H         -0.23300       -1.05700       18.80900
C          2.77200       -3.02600       20.10800
H          2.40100       -3.85600       19.90900
C          3.17600       -2.55700       21.39000
H          3.11100       -3.03900       22.18400
C          3.68000       -1.27800       21.27300
H          4.01100       -0.75300       21.96500
C          3.60400       -0.91000       19.90800
H          3.87700       -0.09600       19.54700
C          3.04400       -1.98100       19.19300
H          2.88100       -2.00100       18.27800
C          0.43400       -3.18300       16.86100
H          0.80700       -2.44200       17.28100
C          0.74800       -4.52200       17.12900
H          1.36400       -4.81900       17.76000
C         -0.02600       -5.33700       16.28200
H         -0.00800       -6.26500       16.24900
C         -0.83700       -4.48700       15.49400
H         -1.45400       -4.76300       14.85400
C         -0.54900       -3.15800       15.84200
H         -0.93500       -2.39700       15.47100
C         -3.66700       -1.53300       18.33100
C         -3.32500       -1.14600       19.63800
H         -3.05700       -1.79600       20.24700
C         -3.37400        0.16400       20.03700
H         -3.11100        0.39300       20.89900
C         -3.80300        1.13000       19.18300
H         -3.84500        2.01500       19.46400
C         -4.17900        0.79000       17.88800
H         -4.47200        1.45300       17.30400
C         -4.12200       -0.51000       17.46700
H         -4.38600       -0.72300       16.60200
C         -4.56500       -3.33100       16.33300
C         -4.05200       -2.99100       15.09700
H         -3.16800       -2.70900       15.03200
C         -4.82500       -3.06400       13.95300
H         -4.47100       -2.80900       13.13300
C         -6.14300       -3.52000       14.04100
H         -6.66900       -3.58000       13.27500
C         -6.66000       -3.88600       15.26300
H         -7.52800       -4.21400       15.31600
C         -5.90600       -3.76600       16.39700
H         -6.28300       -3.97500       17.22100
C         -4.38600       -4.22900       19.07100
H         -3.99000       -4.07000       19.94300
H         -5.31700       -3.95800       19.10900
C         -4.29500       -5.69600       18.72800
H         -4.96200       -5.91600       18.05900
H         -4.47600       -6.22700       19.52000
C         -1.90800       -7.26700       19.26800
C         -0.61000       -7.11600       19.76700
H         -0.08300       -6.41300       19.46500
C         -0.10400       -7.98200       20.69200
H          0.75900       -7.86300       21.01600
C         -0.87600       -9.04300       21.14700
H         -0.53900       -9.63400       21.78000
C         -2.12200       -9.20700       20.65500
H         -2.63200       -9.92500       20.95000
C         -2.65900       -8.34400       19.73800
H         -3.52500       -8.47700       19.42700
C         -2.85200       -7.11300       16.59900
C         -2.05700       -8.22100       16.32600
H         -1.47100       -8.54600       16.97300
C         -2.14100       -8.83900       15.10000
H         -1.58100       -9.56000       14.92000
C         -3.00900       -8.43200       14.14800
H         -3.04500       -8.87300       13.33000
C         -3.84100       -7.36200       14.39600
H         -4.45300       -7.08900       13.75000
C         -3.76600       -6.69700       15.60100
H         -4.32100       -5.96800       15.76000
P         -3.51000       -3.23800       17.80900
P         -2.60700       -6.10600       18.07900
Fe        -1.80400       -3.93000       23.53100
Fe         1.74700       -1.35700       20.61700
Ru        -1.42300       -4.18600       17.65100
C          3.65500        3.61200       14.77800
C          2.67300        4.11500       13.92900
H          2.74500        4.99200       13.62500
C          1.59200        3.34700       13.52800
C          1.43900        2.05300       13.93600
H          0.72400        1.53700       13.63700
C          2.38600        1.52700       14.81000
C          3.46300        2.29200       15.21900
H          4.08200        1.92000       15.80400
C          0.55300        3.91100       12.61000
C          6.27600        3.57700       15.41400
C          6.49700        2.51600       14.52800
H          5.86400        2.33200       13.87100
C          7.65100        1.71900       14.60300
C          8.61400        1.97100       15.57900
H          9.36500        1.43100       15.65800
C          8.42600        3.03500       16.41400
C          7.28400        3.81000       16.35500
H          7.18200        4.50800       16.96200
C          7.84700        0.63900       13.63000
C          9.46300        3.32800       17.45500
C          4.56800        5.09500       16.80300
C          5.17200        6.25700       17.29700
H          5.75500        6.71700       16.73900
C          4.95100        6.76000       18.57700
C          4.09600        6.08300       19.43400
H          3.93000        6.40900       20.28900
C          3.50000        4.92800       19.00500
C          3.72400        4.43700       17.72000
H          3.30300        3.64800       17.45900
C          5.65500        7.98800       18.99300
C          2.62700        4.11900       19.90800
C          5.23700        5.74300       14.29200
C          4.52500        6.94600       14.35500
H          3.83100        7.01800       14.97000
C          4.80400        8.02600       13.54700
C          5.79900        7.95700       12.57600
H          5.98800        8.67800       12.02000
C          6.49400        6.76700       12.47100
C          6.22700        5.70600       13.32300
H          6.73600        4.93100       13.24100
C          4.05600        9.28900       13.74200
C          7.58800        6.66000       11.45700
F         -0.61100        4.12900       13.24000
F          0.25700        3.08000       11.60300
F          0.89600        5.07200       12.06500
F          1.66300       -0.69900       14.55500
F          1.40800        0.13500       16.42300
F          3.28300       -0.41900       15.83200
C          2.22800        0.15700       15.35800
F          8.64800       -0.33400       14.11600
F          8.47600        1.02400       12.53500
F          6.74100        0.04400       13.26500
F          9.52600        2.39000       18.37700
F          9.29900        4.48100       18.09000
F         10.69200        3.39500       16.92700
F          5.11500        8.57100       20.05900
F          5.67200        8.93900       18.03700
F          6.92200        7.74900       19.29500
F          2.66900        4.55900       21.16900
F          1.35700        4.17500       19.55800
F          2.97500        2.84700       19.94700
F          2.73000        9.10200       13.82900
F          4.35200        9.87100       14.87600
F          4.24200       10.20500       12.80500
F          8.77300        6.96200       11.96300
F          7.44300        7.47800       10.42500
F          7.74500        5.42500       10.99400
B          4.92700        4.51200       15.31600
F          1.08700       -0.37200       15.05300
F          2.38700        0.05000       16.62800
F          3.14500       -0.59500       14.77800
C          2.72000       -1.98100       25.95300
H          2.94000       -1.60100       26.83100
Cl         1.71800       -3.31400       26.26400
Cl         1.92400       -0.72400       25.09100
Cl         4.20500       -2.35200       25.22600
