462
C:\Users\Javier\OneDrive - Universitat de Barcelona\Tesi\4 - Contribucions\Treballs\3-PhD\chapter_1\cif\pc2p\EROQUA.pc2p.pdb
Pd         0.87200        8.45200       15.45900
Zn         0.84500        7.22200       17.57700
H         -0.29800        8.01800       16.44900
N          0.88800        7.53500       19.56000
C          0.38500        6.68600       20.43800
C         -0.01900        5.39100       20.13700
H         -0.43200        4.91600       20.84800
C          0.09900        4.68700       18.92900
N          0.49300        5.24800       17.79900
C          0.23000        7.11500       21.88200
H         -0.22900        6.41100       22.38500
H         -0.29600        7.94100       21.92200
H          1.11500        7.27200       22.27300
C         -0.23800        3.21500       18.96500
H         -0.92500        3.02000       18.29500
H         -0.57300        2.97900       19.85500
H          0.56700        2.69100       18.77000
C          1.49700        8.75700       20.02400
C          2.83600        8.72600       20.44500
C          3.43900        9.92300       20.79300
H          4.34500        9.92100       21.07800
C          2.75300       11.11700       20.73800
H          3.18900       11.92900       20.96900
C          1.43900       11.13000       20.34600
H          0.96900       11.95500       20.32000
C          0.77900        9.95700       19.98700
C          3.61900        7.43900       20.55800
H          3.00000        6.67200       20.39000
C          4.73600        7.38000       19.56500
H          4.37300        7.46900       18.66000
H          5.20000        6.52000       19.64800
H          5.36600        8.10900       19.73900
C          4.22800        7.28600       21.98900
H          5.00600        7.87300       22.07800
H          4.50200        6.35500       22.12900
H          3.55500        7.53200       22.65800
C         -0.67600       10.00400       19.57900
H         -0.95900        9.07100       19.35500
C         -1.56400       10.49500       20.73900
H         -1.47800        9.88200       21.49900
H         -2.49900       10.52400       20.44600
H         -1.27900       11.39300       21.01100
C         -0.88000       10.85300       18.34500
H         -0.64200       11.78200       18.54500
H         -1.82000       10.80900       18.06900
H         -0.31200       10.51800       17.62000
C          0.70200        4.45100       16.62400
C         -0.34100        4.27800       15.70900
C         -0.06400        3.60800       14.51400
H         -0.75900        3.47500       13.88100
C          1.19700        3.13800       14.23900
H          1.37200        2.70300       13.41300
C          2.21200        3.29600       15.16100
H          3.07600        2.95000       14.97000
C          1.99100        3.95500       16.36800
C         -1.74900        4.77300       15.98700
H         -1.75500        5.19600       16.89300
C         -2.74700        3.60600       16.00300
H         -2.81200        3.22000       15.10400
H         -3.62800        3.93300       16.28200
H         -2.43800        2.92100       16.63100
C         -2.21700        5.81000       14.98700
H         -1.59300        6.56500       14.98300
H         -3.11000        6.12500       15.23700
H         -2.25100        5.40900       14.09300
C          3.11100        4.08800       17.38300
H          2.75900        4.59400       18.17000
C          4.30500        4.83400       16.83900
H          4.68700        4.33600       16.08600
H          4.98000        4.93000       17.54300
H          4.02400        5.72200       16.53400
C          3.58800        2.72500       17.86900
H          2.83000        2.22800       18.24200
H          4.27100        2.84700       18.56200
H          3.97000        2.22500       17.11900
P         -0.18600        9.35300       13.57800
C          1.12200       10.33000       12.70700
H          0.88100       10.41100       11.75000
H          1.15100       11.24300       13.09000
C          2.51000        9.69800       12.81900
H          3.19100       10.38100       12.59800
H          2.58500        8.97100       12.15100
P          2.88000        9.00300       14.51200
C         -0.75500        8.08900       12.34700
H         -1.64400        7.77300       12.67700
C          0.14500        6.85000       12.33700
H          1.03800        7.09400       11.98700
H          0.25900        6.51900       13.26300
C         -0.45200        5.74400       11.47400
H          0.16300        4.96900       11.45900
H         -1.31100        5.44600       11.86700
C         -0.68800        6.22900       10.05700
H         -1.11400        5.50800        9.52900
H          0.18100        6.44500        9.63400
C         -1.57900        7.46400       10.04000
H         -2.48000        7.22300       10.37200
H         -1.67200        7.79000        9.11000
C         -0.99700        8.57800       10.91500
H         -1.62300        9.34500       10.93000
H         -0.14200        8.88900       10.52500
C         -1.59400       10.56900       13.60000
H         -1.72500       10.92100       12.67300
C         -2.87600        9.88600       14.04200
H         -2.72000        9.43800       14.91100
H         -3.11500        9.18900       13.38100
C         -4.05000       10.86800       14.18500
H         -4.28200       11.23500       13.29500
H         -4.84100       10.38700       14.53400
C         -3.69700       12.00300       15.12000
H         -4.44900       12.64700       15.15700
H         -3.55300       11.64700       16.03200
C         -2.45000       12.71100       14.65300
H         -2.21700       13.42600       15.29700
H         -2.62200       13.13500       13.77400
C         -1.27700       11.74300       14.52600
H         -1.04400       11.39600       15.42300
H         -0.48900       12.23000       14.17500
C          3.77200       10.39000       15.35400
H          4.61300       10.56400       14.84100
C          2.96300       11.68700       15.36400
H          2.76100       11.95700       14.43300
H          2.10400       11.53700       15.83300
C          3.73700       12.80200       16.06100
H          4.55500       13.00700       15.54300
H          3.18000       13.62000       16.08800
C          4.12200       12.41600       17.46800
H          4.66700       13.13800       17.87000
H          3.30400       12.30900       18.01600
C          4.90600       11.13100       17.48400
H          5.07800       10.86500       18.42200
H          5.78100       11.27800       17.04400
C          4.17200       10.00400       16.77200
H          3.35900        9.76900       17.28600
H          4.75400        9.20400       16.74000
C          4.26400        7.82800       14.10100
H          4.69500        7.57800       14.96800
C          5.37400        8.40900       13.20900
H          4.98200        8.70000       12.34800
H          5.76600        9.20300       13.65100
C          6.47700        7.38800       12.94100
H          7.14800        7.78500       12.33000
H          6.93200        7.16700       13.79200
C          5.92800        6.12000       12.32400
H          6.66000        5.46200       12.21300
H          5.55700        6.32100       11.42900
C          4.84400        5.53000       13.20200
H          5.24300        5.23200       14.05700
H          4.45800        4.73600       12.75300
C          3.72500        6.53600       13.49100
H          3.25000        6.74700       12.64900
H          3.07300        6.12800       14.11500
Pd        10.98500       12.66000       20.52600
Zn        12.11100       11.31300       18.83900
H         10.44500       12.16900       19.07500
N         13.30400       11.57000       17.24700
C         13.29100       10.74400       16.21600
C         12.75400        9.45700       16.25100
H         12.74300        8.99300       15.42200
C         12.23100        8.75900       17.34200
N         11.97700        9.32200       18.50900
C         13.86400       11.19800       14.88500
H         13.21400       11.77200       14.42800
H         14.05600       10.41500       14.32800
H         14.69100       11.70000       15.03900
C         11.97400        7.28800       17.15300
H         12.59000        6.77400       17.71600
H         12.11500        7.05000       16.21300
H         11.05100        7.08300       17.40800
C         14.13300       12.74200       17.20100
C         15.48500       12.63100       17.57600
C         16.25600       13.78900       17.57900
H         17.17500       13.73300       17.81300
C         15.72100       15.01200       17.25100
H         16.26500       15.79000       17.27100
C         14.40100       15.11000       16.89500
H         14.03800       15.95900       16.67200
C         13.58000       13.97900       16.85500
C         16.10200       11.29100       17.95100
H         15.35100       10.68800       18.22100
C         17.03400       11.38300       19.12500
H         17.84000       11.87600       18.86400
H         17.28100       10.48200       19.41800
H         16.58800       11.85500       19.86000
C         16.80600       10.62900       16.79600
H         16.16300       10.45700       16.07600
H         17.19600        9.78000       17.09300
H         17.51700       11.21600       16.46500
C         12.12700       14.11600       16.44500
H         11.70800       13.21000       16.50200
C         11.99400       14.60200       14.99600
H         12.35400       15.51000       14.92100
H         11.04900       14.60300       14.73700
H         12.49400       14.00300       14.40300
C         11.36200       15.04000       17.38000
H         11.43200       14.70600       18.29800
H         10.41900       15.06600       17.11300
H         11.74100       15.94200       17.33000
C         11.48800        8.52800       19.60200
C         10.10500        8.40100       19.79800
C          9.67400        7.73200       20.95100
H          8.74200        7.63600       21.10800
C         10.55900        7.21100       21.86000
H         10.23900        6.78000       22.64300
C         11.90800        7.31600       21.63200
H         12.51700        6.93600       22.25500
C         12.40400        7.97000       20.50400
C          9.10100        8.94300       18.80200
H          9.61000        9.40700       18.07800
C          8.29700        7.81300       18.15400
H          8.90900        7.18100       17.72400
H          7.68800        8.18800       17.48400
H          7.77700        7.34700       18.84200
C          8.15200        9.96100       19.43000
H          7.61100        9.52200       20.11900
H          7.56400       10.32900       18.73800
H          8.67300       10.68600       19.83600
C         13.90900        8.06900       20.26600
H         14.05100        8.16200       19.28000
C         14.50000        9.27400       20.91800
H         13.98700       10.06900       20.66200
H         15.43000        9.37900       20.63000
H         14.47000        9.16600       21.89200
C         14.65800        6.81600       20.72000
H         14.66800        6.77900       21.70000
H         15.57800        6.84600       20.38600
H         14.20700        6.02000       20.36900
P          9.16900       13.79100       21.52000
C          9.87700       14.60100       23.03000
H         10.09400       15.54100       22.80600
H          9.18000       14.61600       23.73200
C         11.11100       13.95200       23.60100
H         10.83000       13.26700       24.25800
H         11.62800       14.64000       24.09100
P         12.24100       13.14300       22.34900
C          7.84400       12.67000       22.16500
H          7.39400       12.29300       21.35600
C          8.43600       11.47700       22.89600
H          8.88700       11.79100       23.71900
H          9.11600       11.04700       22.32000
C          7.37000       10.44300       23.27200
H          6.97800       10.05600       22.45100
H          7.78900        9.70800       23.78900
C          6.28000       11.09100       24.10400
H          5.57100       10.42600       24.28600
H          6.66000       11.37800       24.97200
C          5.67300       12.28600       23.41200
H          5.02100       12.71600       24.02000
H          5.18200       11.98000       22.60800
C          6.72700       13.31000       22.99700
H          7.11800       13.72400       23.80800
H          6.29500       14.02800       22.46800
C          8.20500       15.17900       20.76600
H          7.59700       15.56000       21.46300
C          7.35100       14.65200       19.61800
H          7.93400       14.21300       18.94900
H          6.71900       13.97300       19.96400
C          6.56600       15.77100       18.94500
H          6.06100       15.40100       18.17900
H          5.91600       16.14700       19.58900
C          7.47900       16.86500       18.46000
H          6.93700       17.59900       18.07200
H          8.06900       16.51300       17.74800
C          8.32600       17.41000       19.59400
H          7.74000       17.84700       20.26300
H          8.95100       18.09100       19.24200
C          9.11800       16.29100       20.26700
H          9.76700       15.91500       19.62100
H          9.62700       16.66300       21.03000
C         13.61100       14.38100       22.19000
H         13.98100       14.54300       23.10500
C         13.11900       15.71400       21.64700
H         12.41200       16.07100       22.24000
H         12.72700       15.58000       20.74800
C         14.26400       16.71700       21.55900
H         13.92900       17.56700       21.17600
H         14.60900       16.90500       22.46800
C         15.38500       16.18200       20.69400
H         16.13300       16.83200       20.68600
H         15.06200       16.07800       19.76400
C         15.88600       14.84400       21.20800
H         16.30500       14.96800       22.09600
H         16.57500       14.49100       20.59000
C         14.74600       13.84000       21.32100
H         15.08700       12.99800       21.71500
H         14.39700       13.63500       20.41700
C         13.01300       11.80700       23.36800
H         13.73300       11.40400       22.80200
C         13.68800       12.25200       24.67100
H         14.40300       12.90400       24.46300
H         13.02100       12.70400       25.24700
C         14.28900       11.07300       25.42900
H         14.68800       11.39300       26.27600
H         15.00900       10.66300       24.88600
C         13.22200       10.02500       25.73300
H         13.63300        9.26100       26.21200
H         12.52700       10.41800       26.31800
C         12.59100        9.53900       24.45100
H         11.87500        8.88900       24.66600
H         13.27400        9.07200       23.90800
C         12.00200       10.68500       23.64000
H         11.22700       11.06000       24.12900
H         11.67200       10.33100       22.77600
P          9.13300       13.27700       21.78800
C          9.75500       13.84600       23.43600
H          9.35500       14.73400       23.62100
H          9.41100       13.22200       24.12300
H         11.33400       13.57900       24.49000
H         11.33500       14.91600       23.62700
C          7.77400       12.12300       22.26800
H          7.24100       11.92100       21.44600
C          8.38600       10.81200       22.75800
H          8.99400       10.45000       22.06500
H          8.91700       10.98000       23.57600
C          7.29800        9.79100       23.06200
H          6.80600        9.57600       22.22900
H          7.71200        8.95600       23.39600
C          6.32600       10.32500       24.10100
H          6.79800       10.44700       24.96200
H          5.59800        9.66900       24.24000
C          5.72600       11.66000       23.65800
H          5.16400       11.51700       22.85500
H          5.14800       12.01600       24.37700
C          6.80700       12.67400       23.33400
H          7.31400       12.88900       24.15900
H          6.39100       13.50800       23.00400
C          8.22200       14.76600       21.16600
H          7.62000       15.06400       21.90700
C          7.33100       14.45600       19.97200
H          7.87600       14.00500       19.28000
H          6.62600       13.82400       20.25900
C          6.67600       15.66200       19.36000
H          5.97800       15.99800       19.97700
H          6.23200       15.39400       18.51700
C          7.66900       16.78700       19.06800
H          8.28600       16.50500       18.34700
H          7.17800       17.58900       18.75600
C          8.46100       17.12900       20.31000
H          7.85000       17.50400       20.99300
H          9.13400       17.81900       20.08900
C          9.16400       15.91000       20.88400
H          9.85600       15.60600       20.24500
H          9.62000       16.16600       21.72400
C         -2.88100       15.77300       11.72900
H         -3.74900       15.55700       11.32800
H         -2.94000       15.69000       12.70200
H         -2.63500       16.69300       11.49400
C         -1.87000       14.85800       11.22200
H         -1.84000       14.93400       10.23500
H         -2.14500       13.93200       11.44100
C         -0.50000       15.08300       11.75800
H         -0.16600       15.95000       11.41200
H         -0.55400       15.15600       12.74300
C          0.46600       14.03800       11.41500
H          0.61600       14.06800       10.43700
H          0.05400       13.16200       11.62200
C          1.78700       14.09000       12.08100
H          1.62700       14.00900       13.05500
H          2.28700       13.28400       11.80300
C          2.60800       15.16400       11.89300
H          3.43400       15.03600       12.40300
H          2.82100       15.24800       10.94000
H          2.15700       15.97800       12.20000
C         -2.61200       16.47000       11.35700
H         -3.40700       16.85400       10.93300
H         -2.79100       16.31300       12.30700
H         -1.86000       17.09300       11.26500
C         -2.28300       15.22900       10.72100
H         -2.17100       15.43600        9.75900
H         -3.09300       14.66400       10.79100
C         -1.18000       14.38900       11.07800
H         -0.72300       14.12500       10.24000
H         -1.55100       13.56300       11.47700
C         -0.17300       14.89400       11.98200
H         -0.31700       14.46600       12.86200
H         -0.33300       15.86400       12.09900
C          1.22700       14.71500       11.62300
H          1.48300       15.41700       10.97200
H          1.33300       13.83800       11.17500
C          2.15200       14.77500       12.78500
H          3.07300       14.64900       12.47800
H          2.07000       15.65000       13.22200
H          1.92000       14.07000       13.42400
C         -5.59800        5.66500       22.57000
H         -6.56400        5.76400       22.70400
H         -5.35300        4.71900       22.63800
H         -5.12000        6.17700       23.25700
C         -5.25200        6.14300       21.31300
H         -5.57400        7.07900       21.27900
H         -5.80500        5.63600       20.66700
C         -3.95700        6.15800       20.78800
H         -3.60500        5.23800       20.87300
H         -3.41300        6.72700       21.38900
C         -3.66500        6.58500       19.44900
H         -4.03800        5.90900       18.83000
H         -2.68200        6.57400       19.33700
C         -4.15400        7.91100       19.01200
H         -5.13800        7.92700       19.10700
H         -3.78500        8.59500       19.62600
C         -3.82700        8.28600       17.67600
H         -4.19400        9.17500       17.48800
H         -2.85200        8.30600       17.57200
H         -4.20900        7.63600       17.05100
C         -6.19000        5.02400       22.37700
H         -6.81300        4.28600       22.21200
H         -5.69600        4.85500       23.20800
H         -6.68800        5.86300       22.45800
C         -5.30800        5.11600       21.33700
H         -5.85800        5.22600       20.52200
H         -4.87600        4.22800       21.26400
C         -4.25600        6.07600       21.23900
H         -3.40400        5.58700       21.12900
H         -4.20800        6.56700       22.09700
C         -4.35200        7.04700       20.17500
H         -4.34000        7.94500       20.59200
H         -5.24100        6.93700       19.75200
C         -3.36600        7.04000       19.12300
H         -2.52700        7.41500       19.49100
H         -3.18400        6.09700       18.88200
C         -3.66800        7.74400       17.92500
H         -2.92000        7.66000       17.29900
H         -4.47700        7.36700       17.52000
H         -3.81700        8.69100       18.13100
C          7.91800       13.83100       15.36600
H          8.01800       14.65600       15.88500
H          8.41300       13.91100       14.52500
H          6.96900       13.67900       15.17400
C          8.45400       12.68300       16.15200
H          9.40900       12.84300       16.35900
H          7.96200       12.61200       17.00800
C          8.32000       11.41900       15.40200
H          7.42000       11.37600       14.99100
H          8.40900       10.65700       16.02700
C          9.35900       11.31200       14.33400
H         10.25500       11.49100       14.71800
H          9.18600       11.98100       13.62700
C          9.32700        9.93200       13.74700
H          9.38500        9.27400       14.48500
H          8.45200        9.80100       13.30100
C         10.40100        9.63700       12.76800
H         10.30100        8.71900       12.43900
H         10.33900       10.26200       12.01600
H         11.27400        9.73400       13.20200
C          8.01100       13.25000       16.01500
H          7.49300       13.99600       15.64500
H          7.47000       12.77600       16.67900
H          8.82400       13.59500       16.43800
C          8.38100       12.31500       14.91700
H          7.55200       11.99700       14.48100
H          8.90200       12.81500       14.24100
C          9.16200       11.14700       15.33900
H          8.74600       10.77600       16.15600
H         10.07000       11.45800       15.58700
C          9.30500       10.03900       14.34600
H          9.82200        9.29700       14.75000
H          8.41100        9.69400       14.10200
C         10.00600       10.51900       13.11800
H          9.53800       11.34200       12.82700
H         10.91500       10.79300       13.39600
C         10.16200        9.67800       11.92700
H         10.64500       10.17600       11.23600
H         10.66500        8.87100       12.16200
H          9.27700        9.42400       11.58800
