93
C:\Users\Javier\OneDrive - Universitat de Barcelona\Tesi\4 - Contribucions\Treballs\3-PhD\chapter_1\cif\pc2p\FAFFEB.pc2p.pdb
Si         8.18600        2.96400        4.14600
Si         9.90200        3.72500        1.69000
C          7.51700        4.40500        3.31500
C          6.31600        5.11400        3.73300
H          5.84100        4.84000        4.48300
C          5.92200        6.14000        3.03700
H          5.16000        6.62300        3.26300
C          6.71500        6.47800        1.92100
H          6.43600        7.20500        1.41000
C          7.91400        5.80500        1.49800
H          8.39100        6.10500        0.75700
C          8.32400        4.75200        2.18300
Pd        10.50100        2.31700        3.34500
P         11.08600        1.10000        5.17500
P         12.87800        1.92000        2.53300
C         12.92800        0.41100        4.83000
H         13.36300        0.32300        5.69200
H         12.83100       -0.48600        4.47100
C         13.90600        1.16900        3.90200
H         14.56400        0.55700        3.53400
H         14.37200        1.86200        4.39400
C         11.27400        1.96800        6.73900
H         10.38600        2.26600        7.02700
C         12.10700        3.16900        6.50900
H         13.00700        2.91000        6.25600
H         11.72800        3.70900        5.79800
C         12.12800        3.92300        7.76900
H         11.21400        4.12500        8.02000
H         12.57900        4.76700        7.61100
C         12.79900        3.24000        8.94000
H         13.71000        2.98900        8.71800
H         12.81200        3.81900        9.71700
C         11.97500        2.06300        9.18000
H         11.07800        2.32600        9.43700
H         12.35600        1.52700        9.89300
C         11.94100        1.28100        7.91300
H         11.48000        0.44500        8.08200
H         12.85400        1.06500        7.66100
C          9.99200       -0.24400        5.62800
H         10.51400       -0.88700        6.15200
C          8.58900        0.02900        6.43600
H          8.81200        0.45500        7.28000
H          8.07100        0.66800        5.92200
C          7.71700       -1.13200        6.73200
H          6.93200       -0.83800        7.22000
H          8.19400       -1.77200        7.28400
C          7.30400       -1.77500        5.45800
H          6.73100       -1.18300        4.94600
H          6.82500       -2.60100        5.63000
C          8.68200       -2.07100        4.65300
H          9.18900       -2.71800        5.16500
H          8.44600       -2.49200        3.81200
C          9.57700       -0.92900        4.35100
H          9.11700       -0.29700        3.77700
H         10.36300       -1.24700        3.88200
C         13.01800        0.91000        1.07100
H         13.93800        0.59500        0.95600
C         12.51300        1.53800       -0.20000
H         11.62900        1.89400       -0.02100
H         13.08800        2.29000       -0.40400
C         12.42000        0.70800       -1.40000
H         13.29100        0.34000       -1.61900
H         12.11500        1.24000       -2.15200
C         11.45700       -0.38600       -1.11700
H         11.41000       -1.00600       -1.86100
H         10.57100       -0.03100       -0.94300
C         12.02100       -1.04700        0.09900
H         11.48100       -1.83000        0.29200
H         12.91400       -1.35900       -0.11400
C         12.10200       -0.23800        1.32600
H         12.43900       -0.77600        2.05800
H         11.21900        0.08800        1.56700
C         14.07600        3.21400        2.12100
H         13.75100        3.64300        1.30200
C         13.93400        4.19100        3.18100
H         14.21100        3.81800        4.03200
H         13.01200        4.48500        3.25600
C         14.81300        5.31800        2.79200
H         14.73200        6.00400        3.47200
H         14.46800        5.69200        1.96700
C         16.43600        5.01200        2.57000
H         16.89400        5.83300        2.32800
H         16.82400        4.68200        3.39700
C         16.60800        4.02700        1.52100
H         17.53100        3.73100        1.48000
H         16.36100        4.39900        0.66100
C         15.71400        2.89800        1.88000
H         16.05700        2.49400        2.69300
H         15.78400        2.23200        1.17900
H          8.13900        3.09200        5.32300
H          9.59600        3.33000        0.50800
H          7.01300        2.07300        3.93600
H         11.06700        4.57000        1.36800
