74
C:\Users\Javier\OneDrive - Universitat de Barcelona\Tesi\4 - Contribucions\Treballs\3-PhD\chapter_1\cif\pc2p\FEBMEE10.pc2p.pdb
Pd         0.77200        5.00000       16.58400
Cl        -1.54500        4.95200       16.17900
Cl         1.15700        6.73900       15.04000
P          2.96900        4.86500       16.98500
P          0.55300        3.42200       18.14700
O          0.44100        0.38600       16.83700
O          3.04000       -0.30500       16.31600
O          5.24000        0.90000       17.83700
O          6.57500        3.14800       18.97400
O          5.40500        5.74400       18.77200
C          3.22100        3.79700       18.44200
C          2.19300        2.65900       18.39000
C         -0.69400        2.13800       17.85600
C         -0.52300        1.37500       16.55000
C          0.79000       -0.35300       15.75900
C          2.06800       -0.23400       15.30100
C          4.30300       -0.01300       15.82300
C          5.33900       -0.17800       16.87500
C          6.31600        0.79600       18.65900
C          6.32200        1.93900       19.63500
C          6.80200        4.22100       19.87900
C          6.76600        5.49100       19.11900
C          5.20800        6.52000       17.62800
C          3.72200        6.49500       17.30300
C          3.88600        4.07200       15.64700
C          5.19800        3.67600       15.82900
C          5.91000        3.08800       14.80400
C          5.29800        2.86000       13.59500
C          3.98800        3.22000       13.40900
C          3.26800        3.83400       14.42900
C          0.11200        4.07500       19.77300
C         -0.05700        3.22300       20.86900
C         -0.44100        3.72800       22.09600
C         -0.67600        5.06100       22.24800
C         -0.48200        5.90200       21.21000
C         -0.10800        5.43300       19.96200
H          3.07600        4.30500       19.23100
H          4.10600        3.45200       18.44600
H          2.40000        2.08500       17.66100
H          2.20400        2.15800       19.19800
H         -1.55300        2.54400       17.87300
H         -0.63100        1.49900       18.55600
H         -0.20600        1.96500       15.87700
H         -1.34400        0.98700       16.27200
H          0.70200       -1.26500       16.01300
H          0.18400       -0.15900       15.05500
H          2.24700       -0.89700       14.64500
H          2.12500        0.62800       14.90500
H          4.48800       -0.58200       15.08600
H          4.32300        0.89300       15.53900
H          6.20100       -0.18100       16.47900
H          5.18800       -1.00900       17.31300
H          6.27900       -0.02600       19.13300
H          7.12200        0.83600       18.15800
H          6.97100        1.80500       20.31600
H          5.45800        1.98700       20.02800
H          6.12200        4.23900       20.54300
H          7.64900        4.11000       20.29700
H          7.28800        5.40400       18.33200
H          7.10700        6.20300       19.64900
H          5.50200        7.41000       17.78400
H          5.69300        6.14900       16.90100
H          3.27500        6.87300       18.05300
H          3.56600        7.03500       16.53700
H          5.60900        3.82100       16.67400
H          6.82100        2.84500       14.93000
H          5.78100        2.44600       12.88900
H          3.57300        3.05500       12.57200
H          2.35900        4.08300       14.30500
H          0.08400        2.29100       20.75100
H         -0.54900        3.14500       22.83600
H         -0.96800        5.40100       23.08400
H         -0.60500        6.83700       21.33000
H          0.00700        6.02600       19.22900
