36
C:\Users\Javier\OneDrive - Universitat de Barcelona\Tesi\4 - Contribucions\Treballs\3-PhD\chapter_1\cif\pc2p\FEBMEE.pc2p.pdb
Pd         0.77200        5.00000       16.58400
Cl        -1.54500        4.95200       16.17900
Cl         1.15700        6.73900       15.04000
P          2.96900        4.86500       16.98500
P          0.55300        3.42200       18.14700
O          0.44100        0.38600       16.83700
O          3.04000       -0.30500       16.31600
O          5.24000        0.90000       17.83700
O          6.57500        3.14800       18.97400
O          5.40500        5.74400       18.77200
C          3.22100        3.79700       18.44200
C          2.19300        2.65900       18.39000
C         -0.69400        2.13800       17.85600
C         -0.52300        1.37500       16.55000
C          0.79000       -0.35300       15.75900
C          2.06800       -0.23400       15.30100
C          4.30300       -0.01300       15.82300
C          5.33900       -0.17800       16.87500
C          6.31600        0.79600       18.65900
C          6.32200        1.93900       19.63500
C          6.80200        4.22100       19.87900
C          6.76600        5.49100       19.11900
C          5.20800        6.52000       17.62800
C          3.72200        6.49500       17.30300
C          3.88600        4.07200       15.64700
C          5.19800        3.67600       15.82900
C          5.91000        3.08800       14.80400
C          5.29800        2.86000       13.59500
C          3.98800        3.22000       13.40900
C          3.26800        3.83400       14.42900
C          0.11200        4.07500       19.77300
C         -0.05700        3.22300       20.86900
C         -0.44100        3.72800       22.09600
C         -0.67600        5.06100       22.24800
C         -0.48200        5.90200       21.21000
C         -0.10800        5.43300       19.96200
