146
C:\Users\Javier\OneDrive - Universitat de Barcelona\Tesi\4 - Contribucions\Treballs\3-PhD\chapter_1\cif\pc2p\FEHMOW.pc2p.pdb
Pd         9.65200        7.06500        5.47600
Pd         6.81100        5.80800       -1.18100
S          8.89100        6.85400        7.68400
S         10.42100        9.21900        6.12200
S          8.37600        4.34800       -0.12000
S          6.44000        7.20200        0.70600
P         10.78400        7.45200        3.57700
P          9.13700        5.05100        4.52900
P          5.29500        6.97400       -2.36200
P          6.93900        4.46500       -2.98200
C          7.71900        5.54900        7.86900
C          7.90700        4.55400        8.81900
C          6.96200        3.53900        9.00500
C          5.80800        3.48600        8.24500
C          5.61500        4.50400        7.30700
C          6.53800        5.50700        7.12000
C          4.75300        2.39000        8.41700
C          4.68800        1.59600        7.09800
C          5.07200        1.43600        9.55800
C          3.38900        3.04300        8.71400
C          9.08200       10.29500        5.72400
C          9.25100       11.66900        5.91800
C          8.21600       12.56600        5.68400
C          6.97400       12.13700        5.22400
C          6.82100       10.77900        5.02700
C          7.84600        9.87200        5.26500
C          5.82400       13.13400        5.05400
C          5.20600       13.38300        6.42700
C          6.30100       14.44500        4.45000
C          4.73000       12.55600        4.13700
C         12.54300        7.40100        4.01000
C         10.56000        8.96100        2.61700
C          9.18900        3.50000        5.46100
C          7.53600        4.95500        3.69600
C         10.53000        6.08300        2.39100
C         10.33900        4.77900        3.16100
C          7.33600        3.14700        0.64600
C          7.90500        1.96500        1.14000
C          7.14600        1.01600        1.76900
C          5.77800        1.16000        1.98200
C          5.21300        2.32600        1.48300
C          5.96700        3.30500        0.83200
C          4.97100        0.06700        2.69500
C          3.55400        0.53700        3.04300
C          4.86900       -1.17400        1.78100
C          5.67000       -0.34400        3.99000
C          7.32300        8.71000        0.48200
C          7.03100        9.79500        1.31000
C          7.75400       10.97100        1.23100
C          8.78500       11.14900        0.32600
C          9.05000       10.07600       -0.52300
C          8.34900        8.88200       -0.44900
C          9.59400       12.44600        0.24500
C          9.44000       13.31800        1.42000
C         11.15600       12.07500        0.26300
C          9.41400       13.12500       -1.07100
C          5.24900        8.77400       -2.32700
C          3.61400        6.47500       -1.92000
C          8.54000        4.41900       -3.79600
C          6.52000        2.72100       -2.70800
C          5.72700        5.02300       -4.23000
C          5.51500        6.52300       -4.12200
H          8.69200        4.56200        9.35400
H          7.11600        2.87400        9.66600
H          4.82300        4.50300        6.78300
H          6.37100        6.18200        6.47300
H          5.56700        1.20400        6.91000
H          4.43200        2.19500        6.36800
H          4.02400        0.87800        7.18300
H          5.11600        1.93400       10.39900
H          5.93300        1.00000        9.39000
H          4.36900        0.75300        9.62000
H          3.13700        3.62800        7.96800
H          3.45300        3.57400        9.53400
H          2.71100        2.34600        8.82700
H         10.09100       11.99500        6.21800
H          8.35900       13.49000        5.84100
H          5.98400       10.45300        4.71800
H          7.69600        8.94600        5.11100
H          4.45100       14.00300        6.33700
H          5.87900       13.77500        7.02100
H          4.89100       12.53500        6.80100
H          6.69100       14.27600        3.56700
H          6.97600       14.84900        5.03600
H          5.54100       15.05900        4.35900
H          5.10700       12.37500        3.25200
H          3.99900       13.20600        4.05500
H          4.38600       11.72500        4.52500
H         13.08200        7.45400        3.19300
H         12.74000        6.56400        4.47800
H         12.75700        8.16000        4.59400
H         11.12300        8.92500        1.81400
H         10.81500        9.73500        3.16200
H          9.62000        9.04400        2.35100
H          9.12500        2.74400        4.84200
H          8.43700        3.47000        6.08900
H         10.03200        3.44700        5.95700
H          7.44200        5.71300        3.08200
H          6.81900        4.98300        4.36200
H          7.48100        4.11700        3.19000
H          9.73100        6.26500        1.83500
H         11.31400        6.00700        1.79100
H         11.20600        4.47900        3.53100
H         10.00000        4.07600        2.55300
H          8.83800        1.82100        1.03500
H          7.57200        0.22200        2.07500
H          4.27900        2.46200        1.58700
H          5.53800        4.09000        0.51100
H          3.08200        0.78600        2.22000
H          3.60400        1.31400        3.63700
H          3.07000       -0.18700        3.49200
H          5.76800       -1.50700        1.58200
H          4.42000       -0.92800        0.94500
H          4.35400       -1.87500        2.23500
H          5.75400        0.43600        4.57900
H          6.56000       -0.69700        3.78400
H          5.14100       -1.03800        4.44200
H          6.32300        9.72300        1.93800
H          7.53500       11.68400        1.82000
H          9.73400       10.16500       -1.17400
H          8.56900        8.17200       -1.04000
H          8.54500       13.71900        1.41400
H         10.11600       14.02700        1.39100
H          9.55500       12.78700        2.23500
H         11.37700       11.63000        1.10700
H         11.68700       12.89400        0.17600
H         11.35700       11.47600       -0.48500
H         10.07900       13.83700       -1.16400
H          8.51400       13.50800       -1.12300
H          9.53200       12.47300       -1.79400
H          5.00900        9.07700       -1.42700
H          4.58200        9.09700       -2.96800
H          6.13100        9.12700       -2.56600
H          2.98200        6.84600       -2.57100
H          3.39900        6.81000       -1.02500
H          3.55100        5.49600       -1.92500
H          9.20600        4.04000       -3.18500
H          8.80500        5.32700       -4.04700
H          8.48100        3.86200       -4.60200
H          7.20700        2.30500       -2.14500
H          6.47700        2.25700       -3.57000
H          5.65000        2.66100       -2.26100
H          6.05700        4.79900       -5.13600
H          4.86600        4.55300       -4.09100
H          4.71300        6.78700       -4.63800
H          6.29700        7.00000       -4.49600
