93
C:\Users\Javier\OneDrive - Universitat de Barcelona\Tesi\4 - Contribucions\Treballs\3-PhD\chapter_1\cif\pc2p\FIBCAW.pc2p.pdb
Ru         2.06200       10.56700       12.78400
B          3.46800        8.29700       11.01300
H          3.92400        7.50000       10.44600
Cl         3.52900       14.87200       10.70300
Cl         3.42200       17.75700        9.59000
Cl         3.29600       20.19000       11.52300
Cl         3.28200       19.69800       14.58300
Cl         3.34600       16.79400       15.72600
P         -0.01900       11.48500       12.60900
P          1.57200       10.35400       15.00900
N          1.34500        8.65300       12.35200
N          2.12800        7.81100       11.58100
N          4.01800        9.73700       12.99000
N          4.39000        8.70100       12.18600
N          2.57700       10.63900       10.71700
N          3.17700        9.54500       10.16000
N          2.87700       12.42400       13.01000
N          3.35400       14.70400       13.77200
C          0.20200        8.01300       12.56100
H         -0.52500        8.35400       13.06700
C          0.21800        6.77800       11.93700
H         -0.47500        6.12700       11.92700
C          1.44400        6.69700       11.34000
H          1.75900        5.95900       10.83100
C          5.02500        9.95000       13.82200
H          5.04100       10.61900       14.49600
C          6.05700        9.05300       13.57200
H          6.89400        8.99000       14.01800
C          5.60500        8.27800       12.53900
H          6.08000        7.55800       12.13900
C          2.46400       11.53900        9.73900
H          2.09700       12.40700        9.84600
C          2.95700       11.03500        8.53900
H          2.97900       11.46500        7.69300
C          3.40300        9.77500        8.85200
H          3.80700        9.16600        8.24500
C         -0.94100       11.25300       14.20000
H         -1.61200       11.97400       14.30400
H         -1.42200       10.38600       14.18200
C          0.03000       11.27800       15.38400
H         -0.40800       10.87700       16.17600
H          0.25400       12.21700       15.60300
C          3.13700       12.30000       16.27900
H          2.95700       12.81800       15.50400
C          3.88800       12.85100       17.30700
H          4.22500       13.73700       17.22700
C          4.14500       12.11200       18.44600
H          4.66400       12.48000       19.15100
C          3.64400       10.84900       18.54800
H          3.80100       10.34600       19.33800
C          2.91500       10.28500       17.52000
H          2.59100        9.39600       17.60500
C          2.64400       11.00500       16.36000
C          0.12500        8.16900       16.13200
H         -0.58600        8.77500       16.30600
C         -0.01600        6.82900       16.47800
H         -0.82600        6.52800       16.87300
C          1.00800        5.93900       16.25300
H          0.91500        5.02800       16.50800
C          2.16100        6.37300       15.65800
H          2.86800        5.75600       15.49900
C          2.31300        7.70800       15.28200
H          3.10800        7.99100       14.84900
C          1.28700        8.63200       15.54100
C         -2.58300       11.26200       11.52600
H         -2.85200       11.74800       12.29600
C         -3.52100       10.92100       10.57200
H         -4.43100       11.16200       10.68900
C         -3.12300       10.22400        9.44800
H         -3.76500        9.98000        8.79200
C         -1.80800        9.88200        9.27600
H         -1.53900        9.41600        8.49200
C         -0.85800       10.21100       10.24100
H          0.05000        9.96000       10.12200
C         -1.24200       10.90200       11.37200
C         -0.25900       13.75900       10.98600
H         -0.31100       13.13600       10.27100
C         -0.31300       15.09800       10.71200
H         -0.40800       15.39100        9.81300
C         -0.22800       16.02400       11.72800
H         -0.26500       16.95400       11.53400
C         -0.09100       15.58900       13.02500
H         -0.03400       16.21700       13.73600
C         -0.03400       14.22400       13.29800
H          0.07100       13.93300       14.19700
C         -0.12900       13.28300       12.29100
C          3.08800       13.55700       13.23200
C          3.38900       16.20600       11.79500
C          3.36100       17.50300       11.28200
C          3.32100       18.57000       12.15800
C          3.32700       18.35100       13.52300
C          3.34100       17.04900       14.01500
C          3.35100       15.92300       13.16600
