72
C:\Users\Javier\OneDrive - Universitat de Barcelona\Tesi\4 - Contribucions\Treballs\3-PhD\chapter_1\cif\pc2p\FIGYAW.pc2p.pdb
Ru         6.66900        3.52100        2.15500
Cl         5.59200        4.81500        0.37800
Cl         5.84200        5.16900        3.77700
Cl        11.69300       -1.05200        3.61300
Cl        11.76400       -1.14400        0.71400
P          7.60400        1.98200        0.60500
P          7.59800        2.15000        3.85900
O          3.77600        2.57300        2.47100
O          8.75900        5.67200        1.76400
C          4.87000        2.77400        2.34300
C          8.11300        4.81100        1.92800
C          8.20600        0.55200        1.60600
H          7.47400       -0.10800        1.68900
H          8.95000        0.11500        1.12200
C          8.68700        0.92700        3.00500
H          9.59900        1.30300        2.93900
H          8.73800        0.10700        3.55600
C          9.16200        2.58900       -0.30700
C          8.86900        3.91700       -1.05200
H          8.24900        4.45900       -0.52100
H          8.46600        3.71900       -1.92400
H          9.70600        4.40900       -1.18300
C          9.71900        1.57600       -1.33200
H         10.54800        1.92700       -1.71900
H          9.06000        1.43400       -2.04200
H          9.90300        0.72400       -0.88200
C         10.29100        2.78800        0.71600
H         10.56400        1.91900        1.07400
H          9.97100        3.35800        1.44700
H         11.05600        3.21700        0.27900
C          6.46200        1.16000       -0.67000
C          6.30500        2.06000       -1.91700
H          5.61700        1.68400       -2.50600
H          7.15800        2.10600       -2.39700
H          6.03900        2.96200       -1.63800
C          6.95600       -0.22800       -1.09200
H          6.95700       -0.82400       -0.31400
H          7.86600       -0.15700       -1.44900
H          6.36200       -0.59100       -1.78200
C          5.06600        1.00200       -0.08600
H          4.54600        0.38800       -0.64300
H          4.62200        1.87500       -0.06100
H          5.13200        0.64300        0.82300
C          6.35400        1.07500        4.80900
C          5.76600        0.04600        3.82000
H          5.03400       -0.44300        4.25300
H          6.46600       -0.58500        3.55100
H          5.42400        0.51200        3.02800
C          6.99900        0.21600        5.91700
H          6.33800       -0.41700        6.26800
H          7.31000        0.79800        6.64100
H          7.76000       -0.27800        5.54500
C          5.22800        1.91900        5.42200
H          4.99200        2.64400        4.80600
H          5.53100        2.30000        6.27300
H          4.44300        1.35300        5.57700
C          8.75700        2.94800        5.14900
C          9.54600        4.08000        4.48300
H         10.21300        4.42800        5.11300
H          8.93200        4.80000        4.22700
H          9.99900        3.73700        3.68400
C          7.94700        3.58600        6.29600
H          8.53200        4.16700        6.82600
H          7.58000        2.88100        6.86900
H          7.21300        4.11700        5.92000
C          9.78200        1.94600        5.70400
H         10.41200        1.69600        4.99600
H          9.31600        1.14700        6.02600
H         10.27300        2.35800        6.44700
C         11.31700       -1.99200        2.17200
H         11.79900       -2.85500        2.20900
H         10.34500       -2.18500        2.15300
