205
C:\Users\Javier\OneDrive - Universitat de Barcelona\Tesi\4 - Contribucions\Treballs\3-PhD\chapter_1\cif\pc2p\FIGYOK.pc2p.pdb
Ru         2.64300       16.56200        3.09000
Ru         2.64300       13.18200        2.82300
Ru         3.18100        5.97000        7.82300
Cl         2.79900       14.71900        4.84300
Cl         4.24300       14.93700        2.12100
Cl         0.94700       14.91800        2.34300
Cl         3.37900        8.11900        6.61300
Cl         1.30500        5.56900        6.29500
Cl         4.81400        5.28000        6.09100
Cl         9.23100        6.24900        5.28900
Cl         8.08900        6.51500        2.69900
Cl         4.10400        6.48300        2.39600
Cl         1.22300        6.51700        2.68700
P          1.07300       18.13100        3.94700
P          4.32100       18.12600        3.73400
P          1.04600       11.48600        3.40700
P          4.30100       11.54600        3.25600
P          1.70200        6.52900        9.58700
P          4.95300        6.35400        9.34700
O          2.44600       17.46000        0.25900
O          2.43400       12.80600       -0.07700
O          2.91000        3.06700        8.13800
C          2.51700       17.22300        1.38400
C          2.54800       12.83300        1.10100
C          2.91600        4.13900        8.14200
C          3.42700       19.56600        4.26100
H          3.91000       19.92600        5.04600
H          3.52500       20.23600        3.53700
C          2.06700       19.54400        4.60100
H          1.65900       20.38700        4.28100
H          2.00200       19.53900        5.58800
C         -0.07300       18.93300        2.77200
C          1.08900       19.91100        1.83700
H          1.79200       19.32700        1.47700
H          1.49600       20.58400        2.42400
H          0.62800       20.35800        1.10100
C         -0.93100       20.01100        3.25300
H         -1.40200       20.41700        2.49700
H         -0.38100       20.68900        3.69900
H         -1.58500       19.65100        3.88900
C         -0.39300       18.14400        1.65500
H         -1.21300       17.64300        1.83300
H          0.34100       17.52900        1.47300
H         -0.53100       18.73000        0.87800
C          0.03400       17.67700        5.48700
C         -0.72700       18.82900        6.11400
H         -1.66000       18.80500        5.81500
H         -0.31800       19.67700        5.83900
H         -0.69200       18.75100        7.09000
C         -0.98600       16.56600        5.15900
H         -0.54100       15.87100        4.62500
H         -1.72700       16.94500        4.65000
H         -1.31800       16.17500        5.98900
C          0.98900       17.11800        6.53100
H          0.57500       17.16100        7.41300
H          1.81700       17.64800        6.53100
H          1.20500       16.18700        6.31300
C          5.50800       18.80900        2.43200
C          6.17900       20.06600        2.80000
H          6.58000       20.46800        2.00300
H          6.87900       19.88100        3.46000
H          5.52300       20.68600        3.18500
C          5.10800       18.60300        1.12100
H          4.13900       18.71200        1.04800
H          5.35100       17.68700        0.84600
H          5.55700       19.24200        0.53400
C          6.72600       17.70300        2.23800
H          6.34800       16.82300        2.03100
H          7.25500       17.64300        3.06300
H          7.31300       17.98300        1.50100
C          5.41500       17.67400        5.20400
C          4.46900       17.47700        6.41000
H          4.05300       16.58800        6.36100
H          3.76300       18.16100        6.39000
H          4.97300       17.55500        7.24300
C          6.12100       16.41100        4.91700
H          6.45000       16.02400        5.75000
H          6.87200       16.58800        4.31400
H          5.49900       15.78400        4.48800
C          6.36700       18.76800        5.66900
H          6.66400       18.57900        6.58400
H          5.91200       19.63400        5.64500
H          7.14900       18.79700        5.07400
C          1.97800        9.99100        3.85200
H          1.83300        9.81600        4.81500
H          1.58800        9.23000        3.35500
C          3.37000        9.99000        3.62200
H          3.53500        9.37300        2.86500
H          3.79400        9.58200        4.41500
C         -0.03100       11.74300        4.89200
C         -1.18400       12.79100        4.58500
H         -1.77900       12.85600        5.35800
H         -1.68700       12.49900        3.80000
H         -0.77800       13.66800        4.40700
C          0.75800       12.24900        6.05400
H          1.01800       13.18300        5.88400
H          1.55800       11.70400        6.17100
H          0.20900       12.21200        6.86700
C         -0.76500       10.58900        5.47100
H         -0.12400        9.89800        5.73800
H         -1.38300       10.22400        4.80300
H         -1.27200       10.88300        6.26000
C         -0.04500       10.86100        1.98300
C         -0.87600       11.96900        1.41600
H         -1.40300       12.37800        2.13700
H         -1.48000       11.60900        0.73600
H         -0.29300       12.64300        1.01600
C         -1.03600        9.79900        2.38300
H         -1.64000       10.15900        3.07100
H         -0.56000        9.02300        2.74400
H         -1.56100        9.52700        1.60200
C          0.78100       10.19300        0.92300
H          1.31300        9.48000        1.32300
H          1.38700       10.86100        0.51800
H          0.19600        9.83200        0.23100
C          5.45000       10.98200        1.82100
C          6.53900       12.09600        1.77200
H          6.87300       12.19000        0.85400
H          7.27900       11.86000        2.36700
H          6.14800       12.95100        2.06000
C          6.19100        9.78100        1.96300
H          5.57900        9.01900        2.01500
H          6.73100        9.82500        2.78000
H          6.78400        9.67000        1.19000
C          4.76600       11.14500        0.62700
H          5.28500       11.72800        0.03200
H          3.89300       11.54900        0.80100
H          4.64500       10.27000        0.19800
C          5.36200       11.82100        4.83200
C          5.99700       12.99700        4.71000
H          5.38300       13.66600        4.36200
H          6.75400       12.89000        4.09100
H          6.33300       13.27200        5.58800
C          4.43600       11.84100        5.98500
H          4.74700       12.49000        6.64500
H          4.39900       10.94800        6.39000
H          3.53600       12.09300        5.67700
C          6.35200       10.61500        5.08300
H          6.87900       10.44800        4.27300
H          5.84000        9.81100        5.30900
H          6.95700       10.83700        5.82300
C          2.78400        7.00800       11.04300
H          2.80900        7.99700       11.10800
H          2.37000        6.66500       11.87300
C          4.12500        6.52400       10.96600
H          4.14000        5.63400       11.39900
H          4.68500        7.12200       11.52500
C          0.55800        8.01900        9.47700
C          1.32200        9.19600        8.89400
H          1.62800        8.97400        7.99200
H          2.09800        9.39500        9.46100
H          0.73700        9.98100        8.85800
C         -0.56400        7.75700        8.52600
H         -1.15700        7.07400        8.90300
H         -0.20200        7.44300        7.67200
H         -1.06800        8.58500        8.38100
C          0.02200        8.52500       10.78800
H         -0.25200        9.46100       10.69100
H          0.72400        8.46200       11.47200
H         -0.74600        7.98300       11.05900
C          0.71700        5.04700       10.31100
C         -0.00400        4.37600        9.24700
H          0.00600        3.41000        9.40800
H          0.42400        4.57200        8.38900
H         -0.93000        4.69600        9.23000
C         -0.28900        5.47400       11.36300
H         -0.80000        4.69100       11.66200
H         -0.90600        6.13300       10.97800
H          0.17800        5.87000       12.12800
C          1.65600        4.15600       11.03100
H          1.22600        3.82100       11.84800
H          2.46600        4.65300       11.27000
H          1.89600        3.39900       10.45600
C          6.17500        4.89100        9.65100
C          7.35000        4.85900        8.60300
H          8.15500        4.49500        9.02800
H          7.53000        5.76900        8.28700
H          7.09500        4.29300        7.84600
C          6.86300        4.95600       11.01900
H          6.22000        4.70900       11.71500
H          7.18800        5.86600       11.17700
H          7.61700        4.33000       11.03500
C          5.57900        3.54600        9.41600
H          6.29400        2.87500        9.37600
H          5.08800        3.55100        8.57100
H          4.96900        3.32600       10.14900
C          5.98500        7.89000        9.13300
C          6.71100        7.94900        7.82200
H          7.21900        8.78500        7.76500
H          6.06300        7.91000        7.08600
H          7.32600        7.18800        7.75300
C          5.07800        9.11600        9.35600
H          5.62800        9.91800        9.45700
H          4.53700        8.98200       10.16100
H          4.48100        9.22500        8.58300
C          7.08100        8.08700       10.25800
H          7.53300        7.23400       10.42800
H          6.65100        8.39800       11.08400
H          7.73600        8.75300        9.96300
C          7.84100        6.47300        4.36600
H          7.41200        7.31000        4.64600
H          7.21600        5.72900        4.56900
C          2.72700        6.35700        3.50800
H          2.75600        5.48100        3.97000
H          2.79800        7.06600        4.20000
