245
C:\Users\Javier\OneDrive - Universitat de Barcelona\Tesi\4 - Contribucions\Treballs\3-PhD\chapter_1\cif\pc2p\FIGZEB.pc2p.pdb
Ru        -2.51400       17.06400        5.76500
Ru         0.36800       23.79600        5.49800
Cl        -1.95300       12.33600       11.97300
Cl        -2.55600       12.27700       12.39400
Cl        -3.72200       11.18500       13.59400
Cl        -3.32700       10.74900       14.35500
Cl        -2.66800       10.92800       15.53300
Cl        -0.38800        8.55100        0.17100
Cl        -1.15400        9.00600        0.82100
Cl        -0.49100        9.74000        4.13200
Cl        -0.80800        9.41400        4.09400
Cl        -1.01700       10.42100        2.09600
S         -0.13900       18.52000        3.89900
S         -2.04400       22.35200        7.28800
S         -3.96600       21.83400        2.79100
S          1.72500       19.03100        8.24700
P         -3.73700       15.56600        4.40300
P         -3.88300       16.36100        7.54000
P          1.68100       25.13200        6.94100
P          1.62600       24.72900        3.74500
F          0.23600       17.40300        1.58400
F         -1.00600       19.10500        1.50900
F          1.09500       19.33000        1.77900
F         -2.11200       23.34600        9.69500
F         -1.43100       21.31400        9.60700
F         -3.50400       21.76100        9.34300
F         -2.39400       21.70500        0.71900
F         -4.20500       22.78000        0.38400
F         -4.23500       20.67200        0.49700
F          2.33400       20.33600       10.40700
F          2.55000       18.24000       10.57200
F          0.58800       19.13600       10.58200
O         -0.30100       15.21500        6.34800
O         -1.42400       18.42300        7.06900
O         -3.51400       18.93700        5.28900
O         -1.34400       17.72100        4.01000
O          1.05900       17.90600        4.33800
O         -0.31200       19.86500        4.33200
O         -1.81900       25.76000        5.18600
O         -0.82800       22.52800        4.21400
O          1.34400       21.89300        5.73300
O         -0.66700       22.84500        7.20900
O         -3.03700       23.28800        6.87800
O         -2.20300       21.01600        6.78800
O         -3.29500       23.03900        3.17400
O         -5.35100       21.91500        2.95400
O         -3.26400       20.66200        3.25800
O          0.96800       20.18300        7.84400
O          3.10100       19.01900        7.84100
O          1.03100       17.78100        8.05600
O          3.08900       20.00700        5.02800
O         -5.17700       21.03000        5.84400
C         -1.24700       15.82700        6.13300
C         -4.89200       16.52000        3.11200
C         -5.75200       15.33500        2.41800
H         -6.07900       15.74100        1.58800
H         -6.48400       15.27400        3.06500
H         -5.41200       14.43500        2.22500
C         -4.06600       17.46200        2.31800
H         -4.65000       18.09700        1.85400
H         -3.53900       16.96100        1.66100
H         -3.46300       17.95000        2.91700
C         -5.88600       17.22800        4.05700
H         -5.39900       17.84500        4.64200
H         -6.35300       16.56200        4.60200
H         -6.54000       17.73100        3.52700
C         -2.72700       14.24100        3.41100
C         -1.58500       13.69900        4.22700
H         -1.26700       12.86100        3.82800
H         -1.88900       13.53000        5.14400
H         -0.85400       14.35300        4.24100
C         -2.14600       14.79900        2.11200
H         -1.68300       15.64200        2.29600
H         -2.87100       14.95400        1.47100
H         -1.51200       14.15300        1.73400
C         -3.64500       13.07000        3.08500
H         -3.16800       12.42800        2.52000
H         -4.43800       13.39800        2.61100
H         -3.92200       12.63000        3.91700
C         -5.16100       14.89600        5.45400
H         -5.97500       15.42800        5.26600
H         -5.34200       13.95900        5.18800
C         -4.88500       14.93600        6.95600
H         -4.41700       14.10000        7.20800
H         -5.75100       14.94600        7.43300
C         -4.79500       17.72500        8.50400
C         -6.10300       17.20100        9.09200
H         -5.91200       16.44200        9.68400
H         -6.69300       16.91100        8.36600
H         -6.53800       17.91200        9.60600
C         -5.19900       18.84600        7.52800
H         -5.85800       19.43100        7.95600
H         -5.58900       18.45300        6.71800
H         -4.40800       19.37000        7.28400
C         -3.97900       18.33300        9.61900
H         -3.13700       18.68000        9.25800
H         -3.78600       17.64900       10.29400
H         -4.48300       19.06500       10.03200
C         -3.05300       15.23000        8.83000
C         -3.95200       14.87700        9.99200
H         -3.56900       14.12600       10.48700
H         -4.84100       14.62400        9.65500
H         -4.04000       15.65100       10.58600
C         -2.73300       13.87300        8.16200
H         -2.36200       14.03100        7.26800
H         -3.55100       13.34100        8.08900
H         -2.07700       13.39200        8.70800
C         -1.74700       15.87800        9.42600
H         -1.05500       15.19000        9.52000
H         -1.94300       16.26500       10.30700
H         -1.42700       16.58300        8.82500
C         -0.89800       25.09200        5.31700
C          2.66800       24.26100        8.32200
C          3.75400       25.17000        8.94100
H          3.33900       25.78600        9.58000
H          4.19700       25.68100        8.23100
H          4.41600       24.61600        9.40700
C          1.71000       23.76200        9.40900
H          1.03300       23.18000        9.00700
H          1.27000       24.52800        9.83200
H          2.21400       23.26200       10.08300
C          3.42300       23.04100        7.75400
H          3.88400       22.57400        8.48400
H          4.07900       23.34200        7.09300
H          2.78600       22.43100        7.32800
C          0.75400       26.60200        7.70800
C         -0.59200       26.14800        8.31300
H         -0.42400       25.61300        9.11800
H         -1.07800       25.60500        7.65700
H         -1.12800       26.93200        8.54800
C          1.55500       27.34900        8.81000
H          2.42800       27.61800        8.45300
H          1.68400       26.75600        9.58000
H          1.05800       28.14600        9.09200
C          0.51700       27.63500        6.58300
H         -0.01500       28.38200        6.93300
H          0.03500       27.20800        5.84400
H          1.38000       27.97200        6.26100
C          3.03500       25.86200        5.92200
H          3.30700       26.72600        6.32100
H          3.81900       25.25800        5.94900
C          2.63700       26.09100        4.46700
H          3.45800       26.19800        3.92600
H          2.12200       26.93400        4.40700
C          0.63500       25.56100        2.34400
C          0.12400       26.94700        2.79500
H          0.88400       27.54900        2.92600
H         -0.37100       26.85500        3.63500
H         -0.46900       27.31500        2.10700
C         -0.54900       24.68600        1.95600
H         -0.98600       25.05800        1.16200
H         -1.19000       24.65800        2.69700
H         -0.23500       23.77900        1.76300
C          1.47900       25.83200        1.09600
H          1.62000       24.99500        0.60800
H          2.34500       26.20700        1.36200
H          1.01100       26.47200        0.51900
C          2.90300       23.52700        3.02500
C          3.81000       23.07400        4.18100
H          3.26700       22.92700        4.98400
H          4.47700       23.76900        4.36300
H          4.26100       22.24100        3.93700
C          2.18000       22.32300        2.42200
H          2.83900       21.64800        2.15100
H          1.66700       22.60900        1.63700
H          1.57300       21.93800        3.08700
C          3.86700       24.11100        1.96500
H          4.62600       23.50600        1.84300
H          4.19100       24.98700        2.26700
H          3.39200       24.21700        1.11300
C         -2.27400       22.17400        9.08700
C         -3.70000       21.75800        1.00000
C          0.04400       18.61100        2.08500
C          1.79400       19.18900       10.05600
C         -2.13400       10.94700       13.11300
C         -3.68300       10.88400       13.15500
C         -0.35500        9.77300        2.64200
C          0.04600        9.55500        1.65500
H         -0.70100       18.00700        7.34200
H         -1.45000       19.28200        6.85400
H         -3.21300       19.62700        5.76700
H         -3.15200       19.03800        4.49100
H         -0.89500       21.65900        4.36900
H         -1.64600       22.78200        3.97000
H          0.85900       21.54100        6.38800
H          1.81400       21.26700        5.34500
C         -4.64900       16.17000        2.98500
C         -5.76900       15.58800        2.24000
H         -6.20600       14.91000        2.81900
H         -5.21500       15.12300        1.58100
H         -6.46300       16.10500        1.78500
C         -3.71500       16.46700        1.73000
H         -3.49600       15.62300        1.28200
H         -2.88900       16.90000        2.03200
H         -4.18500       17.05800        1.10500
C         -5.34000       17.58600        3.24500
H         -5.80300       17.87800        2.43300
H         -4.65500       18.24500        3.48700
H         -5.98700       17.50400        3.97700
C         -2.88900       13.96600        3.89300
C         -2.68200       13.09700        5.13900
H         -3.55100       12.79800        5.47600
H         -2.22500       13.62100        5.82900
H         -2.13500       12.31700        4.90600
C         -1.57100       14.31700        3.18100
H         -1.07000       14.96300        3.72200
H         -1.76800       14.70800        2.30400
H         -1.03600       13.50500        3.06300
C         -3.68600       13.02100        2.91700
H         -3.25200       12.15700        2.86800
H         -3.71400       13.43600        2.02500
H         -4.60600       12.92000        3.24700
C         -4.66100       14.57600        5.53800
H         -5.42300       14.15900        5.06400
H         -4.08200       13.84800        5.88000
C         -5.19200       15.39400        6.72500
H         -5.60100       14.78200        7.38600
H         -5.89700       16.01000        6.40300
C         -5.24300       17.60100        8.07600
C         -6.21300       17.03900        9.16300
H         -5.69200       16.75900        9.94800
H         -6.68700       16.25700        8.80100
H         -6.85500       17.72300        9.41800
C         -4.64400       18.95300        8.46400
H         -3.89100       19.16000        7.87200
H         -4.33000       18.91800        9.39100
H         -5.32700       19.65000        8.37700
C         -6.18600       17.83400        6.87600
H         -6.80900       18.56200        7.08600
H         -6.69100       17.01600        6.69200
H         -5.65700       18.07600        6.08600
C         -3.04300       15.69500        9.10300
C         -4.05000       14.80700        9.92100
H         -4.40200       14.09200        9.34700
H         -4.80100       15.36300       10.23400
H         -3.59500       14.41400       10.69100
C         -2.72600       16.93800       10.05900
H         -2.18200       16.63700       10.81500
H         -3.56600       17.32100       10.39100
H         -2.23600       17.62000        9.55300
C         -1.79700       15.00500        8.78300
H         -1.13900       15.65500        8.45700
H         -1.96200       14.33200        8.08900
H         -1.45000       14.56500        9.58800
Cl        -1.52300        9.55700        1.51700
