109
C:\Users\Javier\OneDrive - Universitat de Barcelona\Tesi\4 - Contribucions\Treballs\3-PhD\chapter_1\cif\pc2p\FIXXOA.pc2p.pdb
Rh         4.56900        7.37300        0.18200
P          3.46200        8.98200       -0.84300
P          2.97700        7.67700        1.86900
O          5.71300        5.97500        1.28000
O          7.54800        5.60200       -0.98100
O          7.50200        7.51800       -2.16800
O          3.61000        5.03200       -6.01200
O          1.48200        4.70300       -6.24700
O          5.95200        9.17400        0.71600
O          3.13800        4.99800        2.83600
N          4.86500        4.59700       -0.27700
H          4.65700        3.79600       -0.50900
N          2.49700        4.91300       -5.56600
C          6.22900        3.64500        1.50700
H          6.69900        3.94500        2.28800
H          6.84700        3.23300        0.90000
H          5.55700        3.00900        1.76200
C          5.57700        4.81800        0.83500
C          4.45000        5.72800       -1.08700
C          5.44200        6.63400       -1.61600
H          5.14500        7.11100       -2.41800
C          6.91400        6.48200       -1.53300
C          8.92100        7.59400       -2.12900
H          9.21500        8.36800       -2.61300
H          9.29500        6.80500       -2.52900
H          9.21300        7.65700       -1.21600
C          3.24900        5.39400       -1.94200
C          3.39900        5.33100       -3.31700
H          4.22100        5.51000       -3.71700
C          2.28500        4.99000       -4.09000
C          1.07200        4.72500       -3.56200
H          0.35000        4.51000       -4.10900
C          0.92400        4.77900       -2.17600
H          0.09900        4.60900       -1.78200
C          2.03600        5.09300       -1.38800
H          1.94800        5.09800       -0.46200
C          1.90200        9.41000        0.02100
H          1.63900       10.31800       -0.19200
H          1.19200        8.80900       -0.25500
C          2.15500        9.27200        1.52700
H          1.31400        9.31600        2.00600
H          2.71700       10.00100        1.83200
C          4.49000       10.43900       -0.63700
C          5.69200       10.36200        0.10300
C          6.52500       11.47600        0.22400
H          7.31900       11.41700        0.70600
C          6.16800       12.64900       -0.37100
H          6.74400       13.37700       -0.32000
C          4.95500       12.78400       -1.05300
H          4.70300       13.60000       -1.42100
C          4.13900       11.66900       -1.16900
H          3.33000       11.74900       -1.61900
C          7.25100        8.99600        1.34400
H          7.66200        9.85300        1.47900
H          7.81000        8.45900        0.77700
H          7.13900        8.55800        2.19100
C          3.02200        8.96700       -2.60000
C          1.76700        8.50900       -2.99900
H          1.17000        8.17600       -2.36700
C          1.40700        8.55200       -4.33900
H          0.57400        8.23700       -4.60400
C          2.27300        9.05300       -5.26900
H          2.00800        9.13000       -6.15800
C          3.53400        9.44500       -4.89100
H          4.14500        9.72900       -5.53300
C          3.89500        9.41800       -3.55500
H          4.74000        9.71000       -3.30200
C          1.60400        6.46600        1.89600
C          1.85700        5.19900        2.40000
C          0.88000        4.21800        2.40800
H          1.06200        3.37300        2.75100
C         -0.37200        4.51400        1.89700
H         -1.03700        3.86300        1.91400
C         -0.65000        5.73300        1.37300
H         -1.48400        5.90200        0.99400
C          0.32400        6.73500        1.40400
H          0.12000        7.58700        1.09500
C          3.36000        3.93300        3.76400
H          4.29200        3.89600        3.99200
H          3.09500        3.10100        3.36600
H          2.84200        4.08700        4.55800
C          3.39400        7.84400        3.63300
C          4.71700        7.84400        4.04300
H          5.40100        7.73900        3.42300
C          5.01300        8.00400        5.40700
H          5.90100        8.01100        5.68600
C          4.03000        8.14700        6.31700
H          4.24200        8.23600        7.21800
C          2.73100        8.16300        5.92200
H          2.05700        8.28700        6.55200
C          2.40100        7.99100        4.57000
H          1.50900        7.97700        4.30800
B         10.33200       12.00600        0.21500
F         11.36000       12.39200       -0.65500
F          9.87000       10.76000       -0.13100
F          9.35100       12.93800        0.19700
F         10.90800       11.92200        1.50300
O          9.70600        9.94700        3.24100
H          9.00300        9.71100        2.89200
C         10.75300       11.13300        5.01700
H         11.24200       11.66600        4.38700
H         11.25200       10.33900        5.22100
H         10.61100       11.63800        5.82300
C          9.41500       10.74900        4.42300
H          8.93600       11.55900        4.15300
C          8.54300        9.93400        5.28400
H          7.72800        9.73500        4.81800
H          8.34300       10.42100        6.08700
H          8.99100        9.11500        5.50900
