95
C:\Users\Javier\OneDrive - Universitat de Barcelona\Tesi\4 - Contribucions\Treballs\3-PhD\chapter_1\cif\pc2p\FIXYAN.pc2p.pdb
Rh        -1.67200       -0.23700       -0.35300
P         -3.65000        0.72400       -0.13400
P         -2.64100       -1.22100       -2.24800
Cl        -1.72400        5.70500       -4.62500
O          0.08700       -1.37300       -0.49300
O          1.32300        0.23300        1.62200
O         -0.20800        1.27600        2.88500
O         -2.57700       -1.68300        1.23100
O         -0.17800       -2.23900       -3.30200
N          0.87800        0.58000       -1.22500
H          1.48400        0.99200       -1.67400
C          2.37700       -1.34100       -1.18600
H          2.33800       -2.26500       -0.92300
H          3.05300       -0.89100       -0.67500
H          2.59200       -1.28400       -2.12000
C          1.03600       -0.68900       -0.93600
C         -0.31800        1.30100       -0.79200
C         -0.58000        1.32100        0.62600
H         -1.15100        2.07300        0.89500
C          0.29500        0.87600        1.69000
C          0.52700        0.92700        4.06300
H          0.07000        1.26500        4.83700
H          1.40500        1.31100        4.01800
H          0.59900       -0.02900        4.12500
C         -0.66600        2.39600       -1.71900
C         -0.35900        2.30300       -3.06700
H          0.06900        1.54200       -3.38500
C         -0.67200        3.31600       -3.95200
H         -0.45000        3.23900       -4.85200
C         -1.31700        4.44300       -3.48700
C         -1.63500        4.56000       -2.17400
H         -2.08700        5.31300       -1.86900
C         -1.28900        3.56500       -1.29300
H         -1.47700        3.67700       -0.38900
C         -4.55700        0.74100       -1.71200
H         -5.49600        0.92200       -1.55600
H         -4.20300        1.43400       -2.29300
C         -4.38400       -0.62200       -2.35600
H         -4.64800       -0.57000       -3.28800
H         -4.96900       -1.25900       -1.91600
C         -4.56000       -0.43600        0.95400
C         -3.92500       -1.51500        1.55400
C         -4.59900       -2.37200        2.40900
H         -4.16800       -3.10400        2.78700
C         -5.92100       -2.11600        2.68300
H         -6.37800       -2.67400        3.27000
C         -6.58700       -1.05600        2.11400
H         -7.48400       -0.91000        2.30600
C         -5.91500       -0.21600        1.25700
H         -6.36000        0.50600        0.87500
C         -1.81500       -2.66700        1.95300
H         -2.39300       -3.14400        2.55200
H         -1.12300       -2.23100        2.45600
H         -1.41800       -3.28200        1.33200
C         -3.96300        2.34200        0.64700
C         -3.53800        2.51700        1.94800
H         -3.05500        1.84000        2.36600
C         -3.81600        3.67200        2.63500
H         -3.54900        3.76900        3.52000
C         -4.49200        4.68600        1.99600
H         -4.67000        5.47800        2.45200
C         -4.90400        4.54400        0.70900
H         -5.36200        5.23400        0.28500
C         -4.63000        3.35700        0.02500
H         -4.90500        3.25500       -0.85800
C         -0.67300       -1.32900       -4.18500
C         -0.03600       -0.98400       -5.35600
H          0.77700       -1.37700       -5.57900
C         -1.88000       -0.71800       -3.83500
C         -2.43200        0.21700       -4.69700
H         -3.23700        0.62700       -4.47300
C         -1.80700        0.55300       -5.88300
H         -2.18800        1.17600       -6.45800
C         -0.60700       -0.05400       -6.19800
H         -0.17700        0.16800       -6.99200
C          0.52400       -3.37000       -3.81600
H          0.80600       -3.92900       -3.08900
H          1.29300       -3.07300       -4.30800
H         -0.05600       -3.86900       -4.39600
C         -2.89100       -3.00900       -2.51400
C         -3.35100       -3.47800       -3.71000
H         -3.50000       -2.88600       -4.41300
C         -3.60000       -4.84800       -3.88600
H         -3.88900       -5.16800       -4.71100
C         -3.41900       -5.70200       -2.84900
H         -3.61400       -6.60500       -2.95400
C         -2.94900       -5.24400       -1.64800
H         -2.81100       -5.83300       -0.94300
C         -2.68400       -3.90200       -1.49100
H         -2.35600       -3.59600       -0.67700
B         -3.57500       -6.11700        3.25300
F         -3.23500       -6.07900        1.91000
F         -2.75000       -5.32300        3.99200
F         -4.84800       -5.59900        3.34400
F         -3.57800       -7.39000        3.64000
