92
C:\Users\Javier\OneDrive - Universitat de Barcelona\Tesi\4 - Contribucions\Treballs\3-PhD\chapter_1\cif\pc2p\FOLNAW.pc2p.pdb
Ru         0.97100        7.82600        5.08300
C          1.51000        6.12900        5.60900
O          1.87800        5.11000        6.00500
P          2.71400        7.64000        3.56500
C          3.11600        8.98200        2.40000
C          2.23600       10.03700        2.19200
C          2.50900       10.99100        1.21100
C          3.66000       10.90100        0.44700
C          4.53700        9.84900        0.64400
C          4.27500        8.88700        1.61300
C          4.33000        7.15700        4.26100
C          4.92200        8.00300        5.19200
C          6.10100        7.64300        5.83500
C          6.69900        6.42500        5.54700
C          6.14700        5.59900        4.58700
C          4.95700        5.96100        3.94100
C          2.24700        6.28300        2.41500
C          0.84100        6.58400        1.90200
P         -0.27900        6.94200        3.32500
C         -1.60400        7.97600        2.61200
C         -1.31700        9.03600        1.73800
C         -2.32400        9.91100        1.33300
C         -3.62400        9.74200        1.79500
C         -3.92300        8.68500        2.63900
C         -2.92000        7.80300        3.04200
C         -1.15900        5.36400        3.62600
C         -1.68600        4.64000        2.55000
C         -2.41700        3.48000        2.76400
C         -2.63500        3.02100        4.05500
C         -2.12400        3.72400        5.13500
C         -1.38800        4.89600        4.91900
C          1.56600        9.01500        6.90500
C          2.79000        8.95800        7.75900
C          1.29100        9.96300        5.86500
C          2.23000       11.04700        5.43700
C         -0.07800        9.82300        5.48400
C         -0.86500       10.76300        4.62900
C         -0.66200        8.79400        6.31100
C         -2.12200        8.48500        6.42200
C          0.34400        8.31700        7.18800
C          0.15000        7.35600        8.33100
P         -1.13900       12.10900        8.83300
F          0.02200       12.50300        9.86900
F         -0.88900       10.56800        9.14400
F         -2.28500       11.73100        7.80300
F         -1.35000       13.66300        8.53100
F         -0.05300       12.04700        7.65100
F         -2.21300       12.19000       10.01100
O          4.75700        4.75300        9.38300
C          4.23700        5.01000        8.14500
H          1.44500       10.10800        2.72500
H          1.89100       11.70800        1.05800
H          3.84900       11.56400       -0.20900
H          5.32800        9.78400        0.10600
H          4.88000        8.16000        1.74600
H          4.50400        8.84000        5.40100
H          6.51200        8.23400        6.46400
H          7.48700        6.15900        6.00800
H          6.57400        4.77300        4.36900
H          4.57900        5.38900        3.28000
H          2.86600        6.24500        1.69000
H          2.25900        5.44900        2.87500
H          0.50800        5.83800        1.41500
H          0.86900        7.34400        1.32300
H         -0.42600        9.16000        1.41800
H         -2.12000       10.62700        0.73400
H         -4.30700       10.35700        1.53000
H         -4.82000        8.56400        2.94100
H         -3.13700        7.06900        3.61900
H         -1.53800        4.94700        1.65800
H         -2.77500        2.99900        2.01800
H         -3.13100        2.22000        4.20500
H         -2.28200        3.41600        6.02700
H         -1.03500        5.37900        5.66700
H          2.61600        9.42600        8.56800
H          3.50000        9.39600        7.29300
H          3.01500        8.05400        7.95400
H          2.99000       10.67000        5.01000
H          2.51200       11.54900        6.19600
H          1.78800       11.63300        4.82800
H         -1.43900       10.26300        4.06000
H         -0.26200       11.27200        4.09000
H         -1.37000       11.35000        5.17500
H         -2.50700        8.46700        5.55100
H         -2.54900        9.16900        6.93400
H         -2.25000        7.64700        6.85600
H         -0.60300        6.79600        8.17200
H          0.02700        7.82600        9.14600
H          0.92700        6.80800        8.41900
H          4.42300        4.27800        7.54900
H          3.29000        5.12100        8.19100
H          4.62200        5.79900        7.77600
