75
C:\Users\Javier\OneDrive - Universitat de Barcelona\Tesi\4 - Contribucions\Treballs\3-PhD\chapter_1\cif\pc2p\FOQQAD.pc2p.pdb
Pd        13.28000        2.60800       16.65900
S         12.18500        0.98200       17.92300
S         14.10700        0.73800       15.43600
P         12.71300        4.58500       17.68400
P         14.45700        3.90800       15.22800
N         11.01600        2.85400       19.44500
N         13.33900       -0.33700       13.17400
C         13.81600        5.85500       16.94300
H         13.45400        6.73900       17.12400
H         14.69200        5.80000       17.35200
C         13.94300        5.66000       15.44800
H         14.60800        6.26100       15.08100
H         13.09600        5.82700       15.00600
C         11.11600        1.54700       19.18000
C         10.30200        0.63800       19.83700
H         10.34300       -0.26000       19.60200
C          9.45200        1.02800       20.81000
H          8.94700        0.40100       21.27500
C          9.34500        2.37800       21.10300
H          8.74800        2.69600       21.73900
C         10.17200        3.21900       20.40300
H         10.14000        4.12400       20.61700
C         12.93400        0.49100       14.15200
C         11.68100        1.10200       14.11700
H         11.39100        1.62500       14.83000
C         10.88300        0.91600       13.01000
H         10.06100        1.35200       12.95000
C         11.28900        0.09400       12.00600
H         10.77200       -0.03700       11.24600
C         12.50100       -0.53100       12.15900
H         12.75500       -1.13900       11.50300
C         11.02900        5.13300       17.26200
C         10.04600        4.22400       17.00500
H         10.24300        3.31500       17.02100
C          8.77000        4.63400       16.72000
H          8.11000        4.00300       16.55000
C          8.46300        5.97900       16.68400
H          7.59200        6.25700       16.51300
C          9.45100        6.89900       16.90300
H          9.25500        7.80700       16.85500
C         10.74700        6.48500       17.19800
H         11.41400        7.11400       17.35000
C         13.04900        4.88800       19.43500
C         13.99200        4.13200       20.05500
H         14.42400        3.45000       19.59400
C         14.31400        4.38400       21.39600
H         14.95100        3.85300       21.81900
C         13.72400        5.37300       22.08400
H         13.93100        5.51300       22.97900
C         12.82000        6.16100       21.46200
H         12.41800        6.86400       21.91800
C         12.50100        5.91000       20.14000
H         11.88600        6.46400       19.71600
C         14.29500        3.55500       13.46700
C         15.24200        2.84700       12.74700
H         16.03400        2.58600       13.16000
C         15.02100        2.52700       11.42200
H         15.67100        2.06900       10.93900
C         13.86100        2.88000       10.83000
H         13.72000        2.66000        9.93700
C         12.90000        3.54000       11.50300
H         12.10100        3.76400       11.08300
C         13.12200        3.88700       12.83100
H         12.46500        4.35200       13.29700
C         16.21300        3.91600       15.62000
C         17.12700        4.67200       14.87600
H         16.83100        5.15300       14.13600
C         18.45800        4.70900       15.22700
H         19.05700        5.19900       14.71100
C         18.89800        4.04300       16.31100
H         19.79900        4.08900       16.54400
C         18.03500        3.29700       17.07300
H         18.34500        2.82300       17.81000
C         16.69800        3.26100       16.73200
H         16.11000        2.78000       17.26600
