106
C:\Users\Javier\OneDrive - Universitat de Barcelona\Tesi\4 - Contribucions\Treballs\3-PhD\chapter_1\cif\pc2p\FUNRIQ.pc2p.pdb
C          0.86300        8.28300       15.06200
C          2.17000        8.54900       15.40200
H          2.88800        8.22100       14.87500
C          2.40700        9.30800       16.53400
H          3.30300        9.50600       16.78600
C          1.35800        9.78800       17.31200
H          1.54200       10.29600       18.09300
C          0.03700        9.52600       16.94900
H         -0.68500        9.85200       17.47200
C         -0.19000        8.79000       15.82300
C         -2.52100        5.55500       14.89600
C         -2.86600        4.40300       15.55600
H         -2.22000        3.88300       16.01900
C         -4.22600        4.02500       15.51800
H         -4.50600        3.23700       15.96900
C         -5.14400        4.77300       14.84500
H         -6.04700        4.47700       14.80900
C         -4.79300        5.95800       14.20900
H         -5.43900        6.48000       13.74800
C         -3.47700        6.34500       14.27200
C         -1.16400        7.38400       11.35600
C         -1.15900        6.95200       10.05100
H         -1.12200        6.02700        9.84100
C         -1.20700        7.90700        9.05600
H         -1.21500        7.63000        8.14700
C         -1.24700        9.25600        9.35000
H         -1.25800        9.89200        8.64500
C         -1.27000        9.69100       10.67300
H         -1.30700       10.61600       10.88600
C         -1.23900        8.73400       11.65900
C          3.54700        7.42400       10.51300
C          4.79500        7.79300       10.98600
H          5.55200        7.24800       10.80700
C          4.94000        8.95500       11.71900
H          5.79900        9.20500       12.04000
C          3.86200        9.75100       11.98900
H          3.97000       10.54700       12.49600
C          2.60500        9.38800       11.51900
H          1.85200        9.93400       11.71000
C          2.45300        8.24700       10.78600
H          1.59400        8.01100       10.45600
C          2.48300        4.72200       10.68900
C          1.77300        5.11400       11.79700
H          1.76900        6.02700       12.05700
C          1.06200        4.18500       12.53500
H          0.56500        4.46600       13.29500
C          1.06700        2.86400       12.18200
H          0.56200        2.23600       12.68500
C          1.80400        2.44300       11.09800
H          1.82100        1.52400       10.86100
C          2.52000        3.36600       10.35500
H          3.04000        3.07600        9.61400
C          3.95400        5.08400        5.39200
C          3.19300        5.60700        4.35000
H          2.99800        6.53600        4.33400
C          2.72000        4.79900        3.34300
H          2.18700        5.16600        2.64700
C          3.02000        3.45600        3.34700
H          2.70100        2.89700        2.64700
C          3.77800        2.91900        4.35300
H          3.98900        1.99200        4.34200
C          4.24300        3.72300        5.39000
H          4.75500        3.34400        6.09500
C          5.61300        7.39100        5.97900
C          6.17600        7.23200        4.72300
H          5.96300        6.47000        4.19800
C          7.05600        8.19500        4.23700
H          7.45300        8.08200        3.38200
C          7.35300        9.30300        4.98200
H          7.93800        9.96300        4.63200
C          6.80800        9.46900        6.24100
H          7.01500       10.23800        6.75800
C          5.95600        8.49700        6.73500
H          5.59900        8.59100        7.61100
C          2.22700        6.26700        8.23900
H          1.88800        5.43600        7.82000
H          1.45700        6.78500        8.58000
C          3.01600        7.09300        7.21800
H          3.27600        7.96100        7.61700
H          2.45300        7.27400        6.42400
C          7.02300        4.73300        7.38300
H          7.72600        5.39100        7.56400
H          6.79200        4.75600        6.43100
H          7.34400        3.83800        7.62000
C          6.73100        3.83800       11.05200
C          7.38900        3.24000       12.19600
H          8.25300        3.67700       12.34100
H          7.53000        2.28400       12.02800
H          6.82700        3.35300       12.99100
C         -1.13600        4.76500       18.71500
C         -1.46000        6.10100       18.28000
H         -1.10300        6.24700       17.37900
H         -1.06300        6.75100       18.89800
H         -2.43300        6.21400       18.26800
N          6.23800        4.31700       10.15500
N         -0.88000        3.72100       19.06000
O          0.44100        7.53700       14.01400
O         -1.40800        8.46200       15.30500
O         -1.27300        6.06400       14.78100
O         -2.96300        7.50100       13.78000
O         -1.10800        6.60100       12.45700
O         -1.26600        8.97900       12.99200
P         -1.25900        7.52600       13.88900
P          3.38200        5.86500        9.60800
P          4.51800        6.16200        6.71900
Pd         5.33500        5.18800        8.51700
