151
C:\Users\Javier\OneDrive - Universitat de Barcelona\Tesi\4 - Contribucions\Treballs\3-PhD\chapter_1\cif\pc2p\FUNRUC.pc2p.pdb
C          3.17600        2.11600        0.69700
C          2.62500        0.92800        1.16200
H          2.70800        0.69000        2.07700
C          1.95200        0.09000        0.28400
H          1.56900       -0.72100        0.59700
C          1.84100        0.43900       -1.05000
H          1.38500       -0.13900       -1.65300
C          2.38300        1.61900       -1.51300
H          2.29500        1.85300       -2.43100
C          3.05500        2.45800       -0.64600
H          3.43300        3.26800       -0.96600
C          5.69800        3.45400        1.01900
C          6.34800        2.33400        0.51300
H          5.94300        1.47800        0.58100
C          7.58600        2.46600       -0.09100
H          8.03000        1.70000       -0.43300
C          8.18000        3.70800       -0.19900
H          9.02300        3.79700       -0.62400
C          7.54800        4.80900        0.31100
H          7.96200        5.66000        0.24300
C          6.31000        4.69700        0.92500
H          5.88300        5.46800        1.28000
C          3.54600        5.25500        5.42600
C          4.09200        6.39400        4.86000
H          3.97600        6.56100        3.93200
C          4.80600        7.28900        5.63200
H          5.18900        8.06300        5.23500
C          4.96000        7.05600        6.97900
H          5.44800        7.67300        7.51300
C          4.41400        5.93700        7.55800
H          4.50700        5.79300        8.49200
C          3.73100        5.02500        6.78500
H          3.38600        4.23400        7.18300
C          1.26000        3.45700        5.27400
C          0.45700        4.39300        5.89900
H          0.72200        5.30500        5.93100
C         -0.74600        3.99000        6.48400
H         -1.30400        4.62800        6.91300
C         -1.11800        2.67100        6.43700
H         -1.93900        2.40100        6.83300
C         -0.32100        1.73600        5.82200
H         -0.59200        0.82600        5.79700
C          0.87600        2.11900        5.24000
H          1.43300        1.47300        4.82200
C          3.23500        4.84700        1.79800
H          3.88300        5.57100        1.98300
H          2.82900        5.01200        0.90900
C          2.14500        4.83700        2.87400
H          1.34900        4.35700        2.53200
H          1.87700        5.76700        3.08000
C          5.81000       -0.27200        3.20300
C          6.48400       -1.54900        3.06500
H          7.08600       -1.68500        3.82700
H          7.00400       -1.55500        2.23300
H          5.81900       -2.26900        3.04000
C          4.14700        0.93700        6.75400
C          4.31100        0.21700        8.00500
H          5.24900        0.26100        8.28700
H          4.05200       -0.72000        7.88000
H          3.74400        0.62300        8.69300
C          7.28100        7.66300        3.30800
C          7.84400        6.70500        4.12500
H          7.43800        5.85300        4.23700
C          9.03100        7.02900        4.78300
H          9.43100        6.39000        5.36200
C          9.63000        8.24400        4.61500
H         10.44200        8.43200        5.07100
C          9.07100        9.20900        3.78500
H          9.48700       10.05400        3.66100
C          7.88300        8.89400        3.14600
C          6.70800        9.18500       -0.61300
C          7.38100        8.97500       -1.80100
H          7.76600        8.13100       -2.00800
C          7.47200       10.05200       -2.68200
H          7.92200        9.93700       -3.51100
C          6.92700       11.27400       -2.37800
H          7.02400       11.99300       -2.99000
C          6.23200       11.47900       -1.18200
H          5.84900       12.32300       -0.96800
C          6.12600       10.40700       -0.32700
C          3.22300        8.61100        1.89200
C          1.91700        8.26000        1.62300
H          1.69800        7.69200        0.89300
C          0.93400        8.77300        2.46600
H          0.02500        8.54300        2.31800
C          1.26100        9.61200        3.51300
H          0.57000        9.95000        4.07100
C          2.58300        9.97300        3.76800
H          2.80400       10.55900        4.48100
C          3.55600        9.45000        2.95000
C          0.56400       12.00000        8.26600
C         -0.06600       11.28500        9.26800
H          0.29100       11.24800       10.14600
C         -1.23900       10.62100        8.93900
H         -1.69300       10.11800        9.60400
C         -1.76000       10.67900        7.66800
H         -2.56200       10.20900        7.47200
C         -1.13500       11.41600        6.65700
H         -1.50200       11.47000        5.78300
C          0.03700       12.06000        6.98800
C          1.38400       15.75600        6.42000
C          0.74600       16.96500        6.48500
H          0.30700       17.24700        7.27900
C          0.76200       17.77000        5.34200
H          0.31600       18.60800        5.35100
C          1.42000       17.36100        4.19900
H          1.42300       17.92600        3.43400
C          2.07800       16.13500        4.14600
H          2.53100       15.85500        3.36000
C          2.05300       15.34300        5.26800
C          4.64200       13.02700        7.62400
C          5.88100       13.12600        8.20800
H          6.13200       13.89600        8.70400
C          6.75500       12.06400        8.04700
H          7.62100       12.10800        8.43500
C          6.38900       10.94000        7.32900
H          7.00300       10.22100        7.23600
C          5.12600       10.84900        6.74200
H          4.86800       10.08100        6.24500
C          4.27700       11.90000        6.90800
C          7.81200       12.75200        3.77700
C          6.40200       12.57400        3.86200
H          5.94900       13.35000        3.47000
H          6.14000       12.48400        4.80200
H          6.14300       11.76500        3.37200
C          0.55500        7.89100        7.31800
C          1.69500        8.72200        7.15300
H          2.03100        8.63700        6.23600
H          2.39500        8.44700        7.78400
H          1.44800        9.65500        7.32700
N          5.28300        0.72200        3.30800
N          4.04000        1.51000        5.78700
N          8.92300       12.89300        3.66600
N         -0.35300        7.22500        7.40900
O          6.10800        7.55100        2.61600
O          7.17900        9.71700        2.32700
O          6.55400        8.27500        0.38700
O          5.46700       10.41200        0.86600
O          4.31600        8.22000        1.17700
O          4.89100        9.67600        3.04800
O          1.73000       12.69300        8.39500
O          0.79800       12.81700        6.14400
O          1.45300       14.84000        7.42200
O          2.63800       14.12100        5.41400
O          3.64300       13.95000        7.68900
O          3.01400       11.97900        6.40700
P          4.08600        3.23100        1.80200
P          2.73200        4.02400        4.39800
P          5.75800        8.97200        1.73700
P          2.21200       13.40200        6.91400
Pd         4.12900        2.35700        3.87400
