106
C:\Users\Javier\OneDrive - Universitat de Barcelona\Tesi\4 - Contribucions\Treballs\3-PhD\chapter_1\cif\pc2p\FUTNIU.pc2p.pdb
C          3.09400        1.18500       27.57100
P         -0.16100        1.32400       27.57700
Pd         1.73900        2.06800       28.76500
Sn         3.96800        2.91800       29.77700
C          3.84000        0.83000       26.68900
P          0.28100        3.25600       30.03800
C          4.69600        0.53600       25.61000
C          5.78700       -0.30200       25.74800
H          5.98300       -0.67300       26.57500
C          6.59500       -0.59600       24.65400
H          7.32200       -1.16500       24.76000
C          6.34700       -0.07400       23.44600
H          6.90100       -0.26900       22.72500
C          5.28900        0.73300       23.29000
H          5.08300        1.06200       22.44500
C          4.51000        1.07900       24.36000
H          3.83000        1.70100       24.23600
C         -0.28900        2.19600       25.96100
C          0.78900        2.86000       25.44900
H          1.57500        2.91600       25.94100
C          0.71900        3.44600       24.20000
H          1.46000        3.89200       23.86000
C         -0.42000        3.37700       23.46900
H         -0.45400        3.75800       22.62400
C         -1.51300        2.74900       23.97500
H         -2.30200        2.72500       23.48300
C         -1.46300        2.15500       25.20600
H         -2.21400        1.72000       25.54100
C         -0.49600       -0.37900       27.13000
C          0.33300       -1.01800       26.21600
H          1.05100       -0.55500       25.85300
C          0.11400       -2.32000       25.84400
H          0.67500       -2.72400       25.22400
C         -0.93600       -3.03200       26.39100
H         -1.08800       -3.91400       26.13800
C         -1.73300       -2.43700       27.29600
H         -2.43900       -2.91600       27.66800
C         -1.52700       -1.11800       27.69100
H         -2.08300       -0.73200       28.32900
C          0.56500        5.04400       30.29500
C          1.32700        5.71500       29.40400
H          1.71900        5.24600       28.70100
C          1.54000        7.05900       29.49600
H          2.05400        7.50100       28.86200
C          0.98600        7.75200       30.54800
H          1.13900        8.66500       30.63500
C          0.20200        7.09300       31.46700
H         -0.20200        7.55900       32.16500
C          0.02900        5.74500       31.34300
H         -0.46600        5.29000       31.98600
C         -0.18100        2.52200       31.63600
C         -1.45800        2.58900       32.15600
H         -2.12300        3.05100       31.69700
C         -1.74000        1.98200       33.33600
H         -2.59800        2.05500       33.68600
C         -0.81000        1.26900       34.02100
H         -1.04100        0.83600       34.81100
C          0.46300        1.19500       33.54800
H          1.11500        0.73500       34.02600
C          0.78000        1.81200       32.34400
H          1.64400        1.74800       32.00900
C         -1.29400        3.30300       29.08300
H         -2.02000        3.59100       29.65700
H         -1.21700        3.93500       28.35200
C         -1.59300        1.91000       28.53100
H         -2.37800        1.94400       27.96200
H         -1.77400        1.30000       29.26200
C          5.35900        1.32100       30.16700
H          5.79300        1.07400       29.33500
H          6.04500        1.64400       30.77300
C          4.74800        0.13800       30.74100
H          3.86000        0.02800       30.36900
H          4.65600        0.26300       31.70100
C          5.65600       -1.27800       30.45200
H          5.15900       -2.06700       30.71800
H          5.88500       -1.35400       29.51500
C          6.88200       -1.09400       31.29700
H          7.14500       -0.17500       31.27800
H          7.58700       -1.64300       30.95200
H          6.68300       -1.35600       32.20200
C          3.90200        4.04200       31.64100
H          3.48500        4.90100       31.47100
H          3.33900        3.56400       32.27100
C          5.21800        4.27800       32.27500
H          5.79400        4.71100       31.62800
H          5.61300        3.41700       32.48200
C          5.21200        5.10800       33.52500
H          4.66100        4.66700       34.19100
H          4.80500        5.96600       33.32700
C          6.60900        5.34000       34.11300
H          7.18600        5.70700       33.43800
H          6.96900        4.51200       34.43000
H          6.54600        5.96300       34.84800
C          5.10800        4.22200       28.40700
H          5.33100        5.04300       28.87600
H          5.94000        3.78000       28.17800
C          4.37900        4.57700       27.13500
H          3.93900        3.77100       26.81300
H          3.68300        5.21200       27.36000
C          5.16400        5.12900       26.02800
H          5.74900        4.45300       25.65600
H          5.71200        5.86900       26.34000
C          4.19200        5.62500       24.96200
H          4.67100        6.08500       24.27300
H          3.55100        6.22100       25.36200
H          3.72500        4.87200       24.58100
