79
C:\Users\Javier\OneDrive - Universitat de Barcelona\Tesi\4 - Contribucions\Treballs\3-PhD\chapter_1\cif\pc2p\FUVPER.pc2p.pdb
Ru         0.83000        4.34600        0.86200
P          2.80200        5.41500        0.51300
P          1.98800        2.47000        0.42000
C          2.95300        6.84300        2.93400
C          3.56900        7.72200        3.82600
C          4.87800        8.14300        3.59900
C          5.57400        7.68600        2.47900
C          4.95900        6.80800        1.58700
C          3.65000        6.38600        1.81400
C          2.80500        6.34600       -2.14600
C          2.73100        7.32600       -3.13700
C          2.63800        8.67200       -2.78200
C          2.61600        9.03700       -1.43600
C          2.69000        8.05800       -0.44500
C          2.78300        6.71200       -0.80000
C          0.90200       -0.29700        3.24000
C          1.89400       -1.28000        3.11700
C          2.91800       -1.12100        2.19300
C          2.96700        0.02100        1.39200
C          1.98300        1.00100        1.51600
C          0.95100        0.84300        2.43900
C          1.99200        2.16600       -2.36900
C          1.54100        1.63800       -3.58000
C          0.57000        0.63600       -3.58500
C          0.05100        0.16300       -2.38000
C          0.50200        0.69000       -1.17000
C          1.47300        1.69200       -1.16500
C          3.80800        2.81600        0.18700
C          4.05600        4.22500       -0.12600
C         -1.40100        4.24200        0.96800
C         -1.05600        5.62100        0.95100
C         -0.40200        5.89400       -0.27900
C         -0.34200        4.68500       -1.02200
C         -0.95900        3.66500       -0.25100
C          1.15400        4.16000        2.89800
C          2.33300        3.63500        3.52200
C          2.58800        3.64600        5.02500
C          0.05300        4.68400        3.72400
C         -1.91600        4.43500        4.80000
C          4.06300        3.13100        6.73400
O         -0.87000        3.70800        3.97300
O         -0.01400        5.83600        4.03200
O          3.71000        3.19400        5.29800
O          1.74200        3.96200        5.83000
H          1.93900        6.51600        3.10900
H          3.03000        8.07500        4.69300
H          5.35400        8.82500        4.28900
H          6.58800        8.01300        2.30300
H          5.49800        6.45300        0.72000
H          2.87700        5.30400       -2.42100
H          2.74800        7.04100       -4.17900
H          2.58100        9.43000       -3.54800
H          2.54400       10.08000       -1.16100
H          2.67300        8.34100        0.59700
H          0.10200       -0.42100        3.95600
H          1.84600       -2.16300        3.73700
H          3.67800       -1.88100        2.09800
H          3.76600        0.14300        0.67600
H          2.74400        2.94200       -2.36500
H          1.94400        2.00400       -4.51200
H          0.22200        0.22800       -4.52100
H         -0.70000       -0.61400       -2.38400
H          0.10000        0.32300       -0.23700
H          4.16900        2.21700       -0.63600
H          4.34000        2.54900        1.08800
H          5.01000        4.49100        0.30200
H          4.09800        4.33400       -1.19900
H         -1.90900        3.72600        1.76900
H         -1.25700        6.33500        1.73600
H         -0.01700        6.85100       -0.59500
H          0.09700        4.56200       -2.00200
H         -1.07300        2.63000       -0.54100
H          3.09400        3.21100        2.88400
H         -2.72000        3.75700        5.04300
H         -2.30600        5.27100        4.23900
H         -1.46200        4.79500        5.71200
H          5.05500        2.71900        6.84800
H          3.34900        2.50000        7.24300
H          4.03500        4.12200        7.15900
