128
C:\Users\Javier\OneDrive - Universitat de Barcelona\Tesi\4 - Contribucions\Treballs\3-PhD\chapter_1\cif\pc2p\GAFCAT.pc2p.pdb
Pd        13.86000        2.02700       17.01300
S         16.02200        2.62700       17.81900
S         14.36000        2.89800       14.88700
P         13.11300        1.60000       19.11900
P         11.72000        1.70300       16.37500
N         17.68300        3.35800       15.87300
H         18.32100        3.12700       15.31200
N         17.02800        1.20900       15.76800
H         17.63400        1.10900       15.13700
C         18.36300        5.23900       17.30100
H         18.07500        4.76500       18.10900
H         18.27300        6.20400       17.43900
H         19.30100        5.02300       17.11300
C         17.51700        4.82000       16.15000
H         16.56300        4.97700       16.40000
C         17.78500        5.56300       14.86200
H         17.70300        6.52800       15.02000
H         17.13400        5.28700       14.18400
H         18.69000        5.36000       14.54900
C         16.96500        2.38600       16.39000
C         16.17100        0.09600       16.06300
C         16.43200       -0.64800       17.19900
H         17.15700       -0.42200       17.76900
C         15.60800       -1.73800       17.49400
H         15.75900       -2.27000       18.26400
C         14.54100       -2.02600       16.60800
H         13.96000       -2.75300       16.79800
C         14.33500       -1.29800       15.52000
H         13.62200       -1.53100       14.93700
C         15.13400       -0.21000       15.21000
C         13.31000        2.93300       20.30500
C         12.92300        2.72400       21.64100
H         12.62300        1.86600       21.91900
C         12.97700        3.75900       22.54700
H         12.71200        3.61300       23.44700
C         13.42200        5.03600       22.14900
H         13.46700        5.75000       22.77500
C         13.78200        5.22600       20.85800
H         14.07400        6.08600       20.57600
C         13.73700        4.18600       19.93500
H         14.00300        4.34300       19.03700
C         13.82600        0.15700       19.93500
C         13.18400       -1.09300       19.89300
H         12.35900       -1.19100       19.43500
C         13.77200       -2.19200       20.52600
H         13.34200       -3.03800       20.51800
C         14.98300       -2.03200       21.16400
H         15.37700       -2.77800       21.60100
C         15.63100       -0.83500       21.18400
H         16.48200       -0.75500       21.60100
C         15.04000        0.25800       20.59600
H         15.47600        1.10200       20.64300
C         11.30900        1.34800       19.03200
H         11.02200        0.74600       19.76500
H         10.84800        2.21700       19.15200
C         10.91300        0.74100       17.68600
H          9.93000        0.77300       17.57600
H         11.20300       -0.20500       17.64400
C         10.81800        3.26900       16.36000
C          9.48100        3.32100       15.98000
H          9.04600        2.53900       15.66300
C          8.79500        4.49600       16.06000
H          7.88700        4.52100       15.78300
C          9.38300        5.64500       16.52800
H          8.88200        6.45100       16.58600
C         10.69700        5.61800       16.91600
H         11.10400        6.40000       17.26900
C         11.43600        4.44300       16.79100
H         12.36400        4.44300       16.99800
C         11.29200        0.91200       14.79700
C         10.97700       -0.43100       14.74400
H         10.98400       -0.95600       15.53700
C         10.64700       -1.01500       13.50900
H         10.42800       -1.93900       13.45900
C         10.64500       -0.26000       12.39000
H         10.42100       -0.66400       11.56000
C         10.95700        1.07900       12.41500
H         10.95200        1.59400       11.61700
C         11.27800        1.65400       13.62100
H         11.49400        2.58000       13.65100
N         14.94000        0.65500       13.80100
H         15.07200        0.20300       13.05800
N         14.55900        2.40000       12.48800
H         14.11600        3.15900       12.42800
C         14.64200        1.82700       13.65100
C         15.18400        1.83200       11.22700
H         15.78700        1.06800       11.46200
C         14.08200        1.35500       10.34700
H         13.63500        0.59100       10.76900
H         14.45100        1.07900        9.48100
H         13.43600        2.07800       10.21200
C         15.98500        2.94500       10.63900
H         16.03700        2.83300        9.66900
H         16.88900        2.93100       11.02000
H         15.55600        3.80000       10.84700
Cl        18.75700        1.80700       13.23300
P         14.58000        7.63300       17.50900
F         13.38400        7.50200       18.54400
F         15.71500        7.73900       16.40000
F         15.58300        7.04400       18.53900
F         14.25100        6.15900       17.00600
F         13.53300        8.23000       16.45300
F         14.90800        9.10600       17.97900
O         12.61800        4.70300       12.39800
C         11.27300        6.27000       13.53400
H         11.12900        7.14000       13.09800
H         11.26200        6.38700       14.50700
H         10.56300        5.65200       13.26800
C         12.60500        5.71600       13.11100
C         13.91500        6.38200       13.45100
H         14.65700        5.78700       13.21600
H         13.94300        6.57600       14.41200
H         13.99500        7.21900       12.94600
C         14.70500        1.52100       13.99600
C         14.72200        2.55200       11.66500
C         14.01800        2.14600       10.22700
C         16.04500        3.37600       11.40700
H         14.08700        3.17500       12.12000
H         14.66800        1.68300        9.65900
H         13.70700        2.95800        9.77100
H         13.25100        1.55600       10.39200
H         16.54900        3.44700       12.24000
H         15.80600        4.27500       11.09200
H         16.58100        2.92200       10.72900
H         14.82100       -0.37200       13.49400
H         14.87800        0.70000       12.01800
N         14.88800        0.18200       14.17400
N         14.78400        1.48300       12.41300
