92
C:\Users\Javier\OneDrive - Universitat de Barcelona\Tesi\4 - Contribucions\Treballs\3-PhD\chapter_1\cif\pc2p\GANGAE.pc2p.pdb
Pd         5.04900        7.71200        3.18800
Cl         6.51600        8.89200        4.62500
Cl         6.82200        6.61000        2.04800
Cl         1.68100        1.66000       -2.25700
Cl         1.71200        1.97200       -5.14600
P          3.30300        8.89900        3.96800
P          3.49300        6.47300        2.14200
N          2.81900        7.14800        6.42000
N          0.74900       10.79400        3.21000
N          3.88300        8.29100       -0.22500
N          0.84400        4.71400        2.97700
C          1.77000        7.95200        3.61700
C          1.92400        7.41400        2.19300
C          3.32600        9.41800        5.70700
C          3.69400       10.73100        6.03100
C          3.62200       11.18700        7.33900
C          3.14000       10.34000        8.32500
C          2.81400        9.02800        8.02400
C          2.96500        8.53300        6.72600
C          1.71100        6.47800        7.07100
C          4.07800        6.43000        6.64300
C          3.19900       10.44300        2.98600
C          4.40600       10.88800        2.44100
C          4.47100       11.95700        1.54800
C          3.30500       12.58500        1.17700
C          2.10300       12.19800        1.71600
C          2.01000       11.15300        2.65400
C          0.53000       11.23800        4.55600
C         -0.42000       11.10600        2.39200
C          3.79700        5.93700        0.43700
C          3.94800        4.58300        0.11800
C          4.18900        4.18200       -1.18500
C          4.28700        5.12900       -2.18900
C          4.16500        6.47700       -1.88200
C          3.93100        6.90000       -0.57500
C          5.18700        8.92700       -0.45400
C          2.81500        9.01200       -0.90600
C          3.30500        4.93200        3.12200
C          4.51000        4.42200        3.61300
C          4.55200        3.34300        4.49100
C          3.36700        2.79000        4.92400
C          2.16700        3.24800        4.43200
C          2.09900        4.29400        3.50200
C         -0.33600        4.37700        3.78200
C          0.63300        4.35200        1.59300
C          2.63600        1.92500       -3.69100
H          1.67200        7.21300        4.25100
H          0.98700        8.53900        3.67400
H          1.95600        8.15700        1.55600
H          1.17100        6.82700        1.97500
H          4.00400       11.33300        5.32500
H          3.90900       12.09700        7.56200
H          3.02800       10.67200        9.23900
H          2.47000        8.44000        8.73000
H          0.88300        6.97300        6.90000
H          1.62800        5.56800        6.72000
H          1.87600        6.44200        8.03800
H          3.95900        5.48400        6.42000
H          4.77700        6.81500        6.07300
H          4.34000        6.51600        7.58300
H          5.23700       10.43300        2.69500
H          5.33000       12.25700        1.18800
H          3.33300       13.31600        0.52500
H          1.28500       12.66100        1.43900
H          1.32500       11.05100        5.09400
H          0.34900       12.20000        4.55600
H         -0.24000       10.76100        4.93200
H         -0.59500       12.06800        2.42200
H         -0.25000       10.83400        1.46400
H         -1.19900       10.62000        2.73400
H          3.88100        3.91000        0.82500
H          4.29300        3.23000       -1.39300
H          4.44100        4.84800       -3.11600
H          4.24500        7.14200       -2.59500
H          5.87000        8.48300        0.09400
H          5.42900        8.84700       -1.40000
H          5.13800        9.87400       -0.20900
H          2.82600        9.95100       -0.62800
H          2.95100        8.95400       -1.87500
H          1.95100        8.61200       -0.67400
H          5.35200        4.83500        3.33100
H          5.41100        2.98100        4.79600
H          3.37800        2.06700        5.58600
H          1.33800        2.83100        4.74200
H         -0.16900        4.61900        4.72000
H         -1.11100        4.87300        3.45100
H         -0.50800        3.41600        3.72000
H         -0.25000        4.66300        1.30500
H          1.32400        4.76800        1.03700
H          0.68200        3.37700        1.50100
H          3.10800        2.77700       -3.59500
H          3.29000        1.19600       -3.76400
