118
C:\Users\Javier\OneDrive - Universitat de Barcelona\Tesi\4 - Contribucions\Treballs\3-PhD\chapter_1\cif\pc2p\GANGEI.pc2p.pdb
Pd         7.54600        4.04100       15.05400
Cl         6.97900        5.92600       13.75600
Cl        10.01600       -1.93800       12.51800
Cl         8.77100       -4.57700       12.35000
S          9.26200       -2.33900       17.46400
P          7.99400        2.30000       16.29400
P          6.55900        2.51400       13.73600
F         11.17800       -1.33400       16.05400
F         11.86700       -2.35600       17.80300
F         11.18100       -3.45500       16.12300
O          9.23700       -1.12900       18.21600
O          9.18000       -3.52200       18.26200
O          8.46500       -2.31700       16.26800
N          9.00400        5.10500       16.29800
N          6.38200        3.68800       18.41900
N          8.97700        2.56300       11.97200
C          9.33700        2.86700       17.34300
C          9.67000        4.22200       17.26900
C         10.65700        4.72700       18.11900
H         10.88800        5.64800       18.08700
C         11.29500        3.88800       19.00600
H         11.96700        4.23700       19.57900
C         10.97000        2.54500       19.07600
H         11.41900        1.97800       19.69300
C          9.99000        2.02500       18.24700
H          9.76300        1.10400       18.29100
C          8.34100        6.23900       16.98200
H          7.68500        5.89500       17.62200
H          7.88700        6.80000       16.31900
H          9.01300        6.77200       17.45600
C         10.03000        5.64400       15.34500
H         10.67100        6.20000       15.83600
H          9.58700        6.18500       14.65800
H         10.50300        4.89900       14.91900
C          6.68900        1.54300       17.29000
C          5.97000        2.32900       18.20000
C          4.89200        1.77400       18.87500
H          4.40800        2.29800       19.50300
C          4.51600        0.47300       18.64400
H          3.75900        0.11200       19.09000
C          5.23600       -0.31200       17.76300
H          4.97700       -1.21300       17.61200
C          6.32800        0.20700       17.10400
H          6.83600       -0.34500       16.52100
C          5.26000        4.63000       18.43300
H          4.71700        4.50400       17.62600
H          5.60300        5.54700       18.45600
H          4.70700        4.46800       19.22700
C          7.11400        3.80100       19.68900
H          6.50300        3.61800       20.43400
H          7.47600        4.70600       19.77700
H          7.84900        3.15300       19.70100
C          8.52400        1.04200       15.08200
H          9.36200        1.32600       14.63800
H          8.68800        0.17800       15.53600
C          7.40000        0.89600       14.05000
H          6.73600        0.24000       14.38000
H          7.77600        0.55200       13.20200
C          4.81300        2.18300       14.20800
C          4.15600        1.01600       13.83900
C          2.90200        0.72800       14.36600
H          2.45100       -0.07000       14.11400
C          2.30400        1.60900       15.25900
H          1.44800        1.41300       15.62000
C          2.96300        2.77700       15.63000
H          2.55400        3.37900       16.24000
C          4.21700        3.06400       15.10300
H          4.66600        3.86200       15.35500
N          4.76800        0.12700       12.85600
C          4.76500       -1.24400       13.36400
H          3.86100       -1.61600       13.29800
H          5.05100       -1.24600       14.30200
H          5.38200       -1.79000       12.83400
C          4.01200        0.28500       11.59400
H          3.09900       -0.05000       11.71600
H          4.45400       -0.22500       10.88300
H          3.98200        1.23300       11.34800
C          6.59100        2.99300       11.99700
C          7.79300        3.01200       11.29600
C          7.80800        3.50200        9.99100
H          8.61800        3.49800        9.49300
C          6.65200        3.99000        9.42000
H          6.67400        4.33000        8.53400
C          5.47700        3.99100       10.11400
H          4.68700        4.32700        9.70700
C          5.43400        3.50600       11.40500
H          4.61700        3.52000       11.89200
C          9.60900        1.43200       11.30000
H          8.94500        0.72500       11.15300
H         10.33700        1.08600       11.85800
H          9.97000        1.72500       10.43600
C          9.94300        3.65700       12.14900
H         10.30600        3.91600       11.27600
H         10.67200        3.35800       12.73000
H          9.49400        4.42600       12.55700
C         10.95600       -2.36000       16.83500
C          9.73700       -3.47200       13.29800
H          9.28300       -3.31300       14.16400
H         10.61000       -3.89600       13.49100
C          4.80900        2.43500       14.14000
C          4.03100        1.30400       13.91700
C          2.75600        1.22000       14.46600
H          2.22500        0.44700       14.31400
C          2.25900        2.26600       15.23500
H          1.38900        2.20700       15.61000
C          3.03700        3.39600       15.45700
H          2.69800        4.11000       15.98400
C          4.31200        3.48100       14.90900
H          4.84400        4.25400       15.06100
N          4.54500        0.20800       13.16600
C          4.26200       -1.14500       13.67500
H          4.44300       -1.17700       14.63800
H          4.83400       -1.79300       13.21400
H          3.32100       -1.36600       13.51300
C          4.39800        0.12400       11.64800
H          3.50200       -0.20400       11.42600
H          5.07000       -0.49100       11.28800
H          4.52500        1.01400       11.25800
