169
C:\Users\Javier\OneDrive - Universitat de Barcelona\Tesi\4 - Contribucions\Treballs\3-PhD\chapter_1\cif\pc2p\GASGEO.pc2p.pdb
Pd         2.42600        3.21800        2.44100
H          3.39500        2.29300        3.16700
Si         1.28100        2.37000        4.27000
H          0.75800        3.38000        5.00100
H          0.25600        1.48300        3.90100
C          2.17700        1.38000        5.66900
C          1.29100        1.01800        6.88400
C         -0.06400        1.27500        7.01800
H         -0.52800        1.73600        6.32900
C         -0.74700        0.85800        8.15100
H         -1.67600        1.03800        8.23600
C         -0.07700        0.17800        9.16500
H         -0.54800       -0.10700        9.94000
C          1.28200       -0.08500        9.03800
H          1.74600       -0.54200        9.73000
C          1.95200        0.32200        7.90800
C          3.40400        2.10700        6.28900
C          3.91200        3.34900        5.91600
H          3.47000        3.86900        5.25400
C          5.06600        3.81700        6.51600
H          5.42900        4.65100        6.24100
C          5.70100        3.09600        7.50600
H          6.49100        3.43600        7.91000
C          5.18600        1.88000        7.91000
H          5.61200        1.38800        8.60000
C          4.04700        1.38600        7.29900
C          2.75700        0.01600        5.23600
C          2.67600       -0.55200        3.98600
H          2.24300       -0.08500        3.28000
C          3.22600       -1.81500        3.74900
H          3.17500       -2.19600        2.88000
C          3.84500       -2.50500        4.76400
H          4.21000       -3.36700        4.59900
C          3.93200       -1.94900        6.02800
H          4.35900       -2.42600        6.73100
C          3.39700       -0.69200        6.26300
C          3.40700        0.04200        7.57800
H          3.87500       -0.46700        8.30000
P          0.80000        4.50700        1.42600
C         -0.26200        5.68100        2.38000
H         -0.84500        5.11800        2.96700
C          0.57400        6.54900        3.31200
H          1.18800        7.11300        2.77900
H          1.12000        5.97000        3.90200
C         -0.33000        7.44300        4.16700
H         -0.87900        6.87500        4.76600
H          0.23100        8.03000        4.73200
C         -1.25100        8.30300        3.30400
H         -1.84500        8.83800        3.88700
H         -0.70700        8.92900        2.76400
C         -2.09600        7.43700        2.37900
H         -2.63900        8.01600        1.78900
H         -2.71400        6.88300        2.91900
C         -1.20700        6.52200        1.51900
H         -1.78000        5.92100        0.98000
H         -0.67400        7.07500        0.89500
C         -0.39300        3.56000        0.39000
H         -0.78300        4.18900       -0.28300
C          0.34300        2.45100       -0.36300
H          1.04600        2.85500       -0.93300
H          0.78500        1.85200        0.28800
C         -0.60500        1.63300       -1.23700
H         -0.95600        2.20400       -1.96400
H         -0.10600        0.88400       -1.64900
C         -1.76000        1.08100       -0.43000
H         -1.42000        0.42100        0.22300
H         -2.39100        0.61500       -1.03700
C         -2.49900        2.18600        0.31000
H         -3.22100        1.79300        0.86200
H         -2.91400        2.80300       -0.34300
C         -1.54200        2.96300        1.20500
H         -1.17500        2.36000        1.89900
H         -2.03500        3.69100        1.66200
C          1.64300        5.61800        0.20000
H          1.00900        5.82400       -0.53000
H          1.87200        6.47000        0.64800
C          2.92300        5.01700       -0.40800
H          3.49100        5.75100       -0.75200
H          2.67700        4.44000       -1.17400
P          3.89700        4.01800        0.81700
C          5.16000        5.20500        1.45500
H          5.66400        5.57100        0.67200
C          4.50800        6.36900        2.18000
H          3.93900        6.02100        2.91200
H          3.92600        6.86200        1.55000
C          5.55200        7.32800        2.76200
H          6.03600        7.77100        2.02200
H          5.09400        8.02800        3.28900
C          6.55100        6.60900        3.65100
H          6.09100        6.27200        4.45900
H          7.25300        7.24300        3.93900
C          7.18900        5.44600        2.91000
H          7.73500        5.79800        2.16200
H          7.79600        4.96200        3.52700
C          6.15600        4.48100        2.36500
H          5.66900        4.06000        3.11700
H          6.61000        3.76600        1.85500
C          4.88200        2.81700       -0.19700
H          5.48400        2.37400        0.46800
C          3.91600        1.60700       -0.72800
H          3.46200        1.19000        0.04700
H          3.21800        1.98500       -1.32000
C          4.71100        0.51200       -1.50900
H          5.27500        0.00400       -0.87300
H          4.07200       -0.12100       -1.92200
C          5.57800        1.09500       -2.57000
H          5.01400        1.52000       -3.26500
H          6.10900        0.38000       -2.99900
C          6.51300        2.13700       -1.96200
H          7.06000        2.54000       -2.68200
H          7.12800        1.68600       -1.33000
C          5.76000        3.24600       -1.22400
H          6.42600        3.86300       -0.82800
H          5.23500        3.76000       -1.88700
O          8.25400        1.49600        3.16700
C          7.65300        1.58900        4.49200
H          7.40300        2.52400        4.70400
H          8.27500        1.25500        5.18600
C          6.44900        0.72500        4.39900
H          6.50000       -0.01600        5.05200
H          5.62900        1.25100        4.58100
C          6.43700        0.22300        3.06900
H          6.44300       -0.76700        3.07000
H          5.63200        0.53600        2.58500
C          7.55500        0.70200        2.48900
H          8.12400       -0.06900        2.23700
H          7.29500        1.16000        1.65000
O          5.61400        3.33700       15.81100
C          5.42300        3.50900       17.27600
H          4.45600        3.56200       17.48100
H          5.79500        2.72600       17.75400
C          6.01900        4.60000       17.69300
H          6.55000        4.39100       18.50100
H          5.33300        5.26600       17.94400
C          6.89800        5.17900       16.68400
H          7.84700        4.99100       16.89600
H          6.76900        6.15800       16.62400
C          6.47000        4.47200       15.33600
H          5.95700        5.08800       14.75400
H          7.26100        4.14100       14.83900
O         13.22100        3.43800        5.61100
C         12.31400        4.48300        5.27400
H         12.67600        5.06900        4.56100
H         12.07400        5.03300        6.06300
C         11.15300        3.67100        4.78900
H         10.46700        3.58400        5.49600
H         10.74100        4.09000        3.99200
C         11.72900        2.35000        4.45100
H         11.44000        1.66300        5.10100
H         11.45700        2.06800        3.54200
C         13.18900        2.56000        4.52200
H         13.67800        1.72000        4.70700
H         13.54500        2.97700        3.69700
C          4.60100        3.00100       -1.72700
C          5.49700        2.02000       -2.50500
C          5.40500        0.63500       -1.94700
C          5.71800        0.61900       -0.49700
C          4.84200        1.60100        0.30200
H          5.83200        3.10800       -0.07800
H          3.64700        2.81500       -1.92000
H          4.79900        3.93200       -1.99900
H          5.22400        2.00800       -3.45700
H          6.43900        2.32900       -2.46200
H          4.48900        0.28500       -2.09000
H          6.03700        0.04300       -2.42700
H          6.67000        0.85600       -0.36800
H          5.58200       -0.29700       -0.14500
H          3.90500        1.27900        0.29700
H          5.15100        1.62300        1.24200
