57
C:\Users\Javier\OneDrive - Universitat de Barcelona\Tesi\4 - Contribucions\Treballs\3-PhD\chapter_1\cif\pc2p\GAZBUE.pc2p.pdb
Ru         1.73600        3.61500        1.41300
P          4.03800        3.74300        1.70900
P          1.75900        3.16600        3.67300
C         -0.04300        2.43500        0.77000
C         -0.03000        3.61100        0.02100
C          1.12100        3.61400       -0.78500
C          1.79400        2.42000       -0.52800
C          1.08200        1.67900        0.41200
C          1.44000        5.43000        1.82300
C          1.06200        6.62100        1.94800
C          0.66200        7.89700        1.98700
C          1.00100        8.74500        3.19000
C         -0.09400        8.47900        0.88100
C         -0.64500        9.75800        0.95400
C         -1.32000       10.29800       -0.11900
C         -1.49300        9.58000       -1.25600
C         -1.07300        8.09100       -1.25500
C         -0.44900        7.64900        0.30000
C          4.84800        5.31500        1.21500
C          4.33500        5.60500        0.22300
C          4.62100        6.47700        2.16600
C          5.07200        2.46800        0.83600
C          4.62500        1.04400        1.15600
C          6.56800        2.60600        1.11600
C          1.84100        1.36200        4.08200
C          0.47400        0.68000        3.96300
C          2.44600        1.06800        5.44400
C          0.40200        3.83100        4.74800
C         -0.91400        3.96200        4.01200
C          0.75300        5.15900        5.43000
C          4.46800        3.49400        3.47600
C          3.29700        3.88900        4.34500
C          9.64700        2.01300        7.07500
C         10.46700        0.87400        7.10700
C         11.76400        0.89500        7.60200
C         12.29400        2.03500        8.10000
C         11.54100        3.17900        8.11500
C         10.23100        3.16400        7.61500
C          7.09500        1.31600        7.61600
C          7.51800        0.54500        8.71000
C          6.64100       -0.04300        9.59900
C          5.27000        0.10500        9.44000
C          4.81600        0.86800        8.39400
C          5.70700        1.44800        7.52700
C          7.61100        3.48300        6.12800
C          7.84400        4.07400        4.88700
C          7.47700        5.40200        4.60800
C          6.84700        6.15700        5.56200
C          6.60500        5.62100        6.79100
C          6.98300        4.31000        7.06000
C          8.07900        1.03200        5.12600
C          7.01000        0.22100        4.78500
C          6.98200       -0.50000        3.59000
C          8.01300       -0.42300        2.71600
C          9.09600        0.35000        3.01800
C          9.11400        1.06400        4.20100
B          8.10500        1.95200        6.50800
