105
C:\Users\Javier\OneDrive - Universitat de Barcelona\Tesi\4 - Contribucions\Treballs\3-PhD\chapter_1\cif\pc2p\GEBDOI.pc2p.pdb
C         14.27700       16.61900       11.51100
H         13.76800       16.61700       10.66200
H         13.70500       17.01400       12.21600
C         15.55100       17.43100       11.35600
H         15.98800       17.54500       12.23600
H         15.34000       18.32700       10.99200
C         13.26800       13.90100       11.68000
C         13.17400       13.23300       10.45800
H         13.88600       13.28100        9.83300
C         12.03300       12.50000       10.16200
H         11.96800       12.04800        9.32900
C         11.00000       12.42500       11.06600
H         10.22200       11.92200       10.85200
C         11.08700       13.07500       12.28500
H         10.37100       13.02100       12.90500
C         12.22400       13.80700       12.59800
H         12.29000       14.24400       13.43900
C         15.03900       14.92300       13.76000
C         14.59900       15.92200       14.61000
H         14.09500       16.65000       14.26400
C         14.89000       15.86800       15.97100
H         14.59400       16.56300       16.54600
C         15.60200       14.81400       16.48100
H         15.79300       14.77600       17.41100
C         16.03800       13.81500       15.65200
H         16.52500       13.08200       16.01000
C         15.77300       13.86900       14.29700
H         16.09400       13.18000       13.72600
C         15.85900       16.68200        8.59300
C         15.31700       17.90400        8.19100
H         15.40300       18.66700        8.75200
C         14.65500       18.01200        6.98100
H         14.27100       18.84100        6.72100
C         14.55500       16.91600        6.15700
H         14.11700       16.99700        5.31800
C         15.08500       15.70200        6.53700
H         15.01100       14.94900        5.96300
C         15.72600       15.58200        7.76000
H         16.07900       14.74200        8.02700
C         18.15800       17.56800       10.11600
C         18.72900       18.04200       11.30000
H         18.32900       17.83900       12.13700
C         19.88900       18.81200       11.24800
H         20.27000       19.15200       12.05000
C         20.48400       19.08500       10.04000
H         21.27900       19.60400       10.00600
C         19.93000       18.60600        8.88000
H         20.35000       18.79500        8.04900
C         18.76400       17.84700        8.90000
H         18.38700       17.52700        8.09100
C         18.45700       13.95600        9.81600
C         19.63000       14.70400        9.91600
H         19.63500       15.49500       10.44300
C         20.79000       14.31600        9.26200
H         21.57600       14.84900        9.33500
C         20.81300       13.16800        8.50900
H         21.60000       12.92000        8.03900
C         19.68400       12.37500        8.43800
H         19.69600       11.57300        7.93000
C         18.52600       12.75700        9.11800
C         16.59100       11.57400       10.06000
C         14.77100       10.04400       10.71800
C         14.75200       10.21800       12.09500
H         15.48700       10.62100       12.54300
C         13.63300        9.79300       12.80800
C         12.55200        9.19900       12.17700
H         11.79500        8.91400       12.67400
C         12.59900        9.03200       10.80800
C         13.70100        9.43800       10.07800
H         13.72400        9.30100        9.13800
C         13.64000        9.94800       14.29400
C         11.40700        8.48200       10.09600
N         17.44400       11.82800        9.05400
H         17.50700       11.18900        8.49700
N         15.87700       10.42400        9.93100
H         16.10100        9.81700        9.28200
O         16.44100       12.31400       11.06200
P         14.74400       14.90400       11.97000
P         16.67700       16.53300       10.20600
Pd        16.69800       14.38900       10.79000
F         12.42000        9.81000       14.83600
F         14.36100        9.08200       14.88000
F         13.94200       11.17000       14.67500
F         11.69700        7.77700        9.03600
F         10.57100        9.42200        9.74900
F         10.69800        7.64700       10.86000
Cl        15.84600       11.99800        0.85200
Cl        13.24700       13.07300        1.06100
C         14.70900       12.59500        1.88300
H         15.08300       13.37800        2.36000
H         14.48900       11.90500        2.55800
S         18.14300        8.18400        7.81900
O         17.98800        9.53600        7.35900
O         18.45000        7.23200        6.80100
O         17.17400        7.80400        8.76700
C         19.69600        8.29500        8.78200
F         19.60100        9.20500        9.73700
F         19.92400        7.12600        9.37300
F         20.69300        8.60600        7.99700
F         13.38000        8.85300       14.95900
F         14.89700       10.23700       14.75200
F         12.94200       10.87000       14.81100
F         11.37900        8.80400        8.78300
F         10.30800        8.97900       10.56000
F         11.28300        7.19900       10.10800
