146
C:\Users\Javier\OneDrive - Universitat de Barcelona\Tesi\4 - Contribucions\Treballs\3-PhD\chapter_1\cif\pc2p\GETKIB.pc2p.pdb
Ru         8.27400        3.48500        8.99500
Ru         7.92700       11.54000       12.69400
P          8.61000        2.77800       11.11400
C         10.34900        2.80800       11.70000
C         10.98000        4.03400       11.87100
H         10.48900        4.83800       11.75100
C         12.32200        4.08800       12.21500
H         12.75500        4.93200       12.28700
C         13.03100        2.93800       12.45400
H         13.94700        2.98400       12.69700
C         12.39800        1.71100       12.33700
H         12.87700        0.91200       12.52100
C         11.06600        1.64900       11.95400
H         10.64200        0.80200       11.86600
C          7.73600        3.56200       12.50100
C          8.03300        3.14500       13.79200
H          8.71700        2.50000       13.93100
C          7.34900        3.65300       14.87200
H          7.53600        3.33200       15.74800
C          6.39400        4.62600       14.68500
H          5.93700        4.99300       15.43100
C          6.09700        5.06800       13.40900
H          5.43800        5.74100       13.28500
C          6.75900        4.53700       12.31200
H          6.54600        4.83600       11.43600
C          8.04300        1.03900       11.23800
H          8.42500        0.62800       12.05500
H          7.05600        1.02300       11.32100
C          8.46400        0.21500       10.00900
H          7.82100       -0.52400        9.87100
H          9.35800       -0.18100       10.16600
P          8.51500        1.29300        8.48800
C         10.13400        0.86100        7.72600
C         11.29600        1.10500        8.44200
H         11.23700        1.50700        9.30200
C         12.53900        0.77400        7.93300
H         13.32100        0.93400        8.44800
C         12.63900        0.21500        6.68100
H         13.49000       -0.01800        6.32700
C         11.51000       -0.00200        5.95800
H         11.58500       -0.37300        5.08700
C         10.24500        0.30700        6.45800
H          9.46700        0.14100        5.93800
C          7.31200        0.59300        7.30200
C          6.80300        1.43800        6.32100
H          7.02800        2.36200        6.33000
C          5.96500        0.94400        5.33000
H          5.64800        1.51600        4.64100
C          5.60000       -0.38000        5.35000
H          5.01100       -0.71800        4.68800
C          6.08700       -1.21500        6.32900
H          5.81700       -2.12600        6.34300
C          6.96600       -0.74100        7.30000
H          7.32200       -1.33200        7.95300
C          6.40700        3.08200        9.27600
C          5.22100        2.81600        9.45500
C          3.88600        2.64200        9.74700
C          2.97200        3.71000        9.41900
N          2.26100        4.56500        9.11700
C          3.33600        1.51400       10.34600
C          4.18200        0.37200       10.59200
N          4.84000       -0.54400       10.75400
C          1.97200        1.45500       10.75000
N          0.86400        1.43700       11.08100
C          8.10600        5.69300        8.53800
H          7.42000        6.24700        8.89000
C          9.33800        5.45300        9.11500
H          9.63200        5.80600        9.94600
C         10.08200        4.60300        8.28400
H         10.96500        4.29200        8.45000
C          9.28700        4.29400        7.15600
H          9.54200        3.73800        6.42800
C          8.04800        4.95500        7.30400
H          7.31300        4.91900        6.70100
P          7.55300       10.96800       10.53300
C          5.81700       11.04000        9.94300
C          5.20800       12.27300        9.80400
H          5.69300       13.06700        9.99700
C          3.87900       12.34600        9.38000
H          3.45900       13.19400        9.30000
C          3.17600       11.21100        9.07600
H          2.27800       11.27400        8.77200
C          3.76900        9.98800        9.21400
H          3.28100        9.19900        9.01100
C          5.09800        9.90000        9.65300
H          5.50600        9.04800        9.75200
C          8.38400       11.85100        9.17100
C          8.00500       11.57000        7.84700
H          7.31500       10.93900        7.67600
C          8.62700       12.20100        6.80900
H          8.37800       11.99100        5.91700
C          9.61700       13.14300        7.03700
H         10.04100       13.57900        6.30700
C          9.97700       13.44100        8.30900
H         10.64600       14.10000        8.46000
C          9.38500       12.79800        9.40800
H          9.65800       13.00200       10.29500
C          8.09300        9.22100       10.30800
H          7.69900        8.86100        9.47300
H          9.07900        9.19100       10.21800
C          7.66500        8.35100       11.48600
H          8.28000        7.57800       11.56400
H          6.75400        8.00300       11.32400
P          7.68400        9.31500       13.07500
C          6.10900        8.87200       13.88200
C          4.89800        9.24500       13.27300
H          4.90600        9.70600       12.44100
C          3.68400        8.93600       13.88800
H          2.87000        9.17000       13.45800
C          3.64800        8.30200       15.10600
H          2.81600        8.11300       15.52500
C          4.82500        7.94300       15.70800
H          4.80300        7.49000       16.54300
C          6.05000        8.23100       15.11600
H          6.85400        7.98800       15.55700
C          8.90000        8.46600       14.13800
C          9.57500        9.19800       15.11300
H          9.48800       10.14300       15.14300
C         10.38200        8.54000       16.04600
H         10.82600        9.03800       16.72500
C         10.53900        7.17100       15.99100
H         11.09200        6.72900       16.62400
C          9.89400        6.44900       15.01900
H         10.00900        5.50900       14.97200
C          9.06800        7.09300       14.10000
H          8.61400        6.58400       13.44000
C          9.78900       11.14100       12.40900
C         10.97600       10.87600       12.26300
C         12.32800       10.71500       12.02800
C         13.20500       11.79700       12.48600
N         13.84600       12.65200       12.86100
C         12.90200        9.63200       11.39600
C         12.07900        8.51400       11.06900
N         11.43900        7.61500       10.84200
C         14.27200        9.63300       10.99300
N         15.35600        9.65800       10.62400
C          8.14900       13.66900       13.30500
H          8.88600       14.19200       13.01000
C          6.95100       13.54700       12.65700
H          6.70400       13.98100       11.85000
C          6.15300       12.67500       13.39100
H          5.27300       12.40500       13.16300
C          6.87100       12.25400       14.52800
H          6.56900       11.65400       15.20100
C          8.11000       12.89200       14.47800
H          8.80500       12.81400       15.12000
