211
C:\Users\Javier\OneDrive - Universitat de Barcelona\Tesi\4 - Contribucions\Treballs\3-PhD\chapter_1\cif\pc2p\GICPUE.pc2p.pdb
Pd         1.33600        7.77900        5.04900
P          3.26500        7.85900        6.26300
P          2.46600        9.11100        3.57000
C         -0.35200        7.69800        3.96600
N         -1.34500        7.57900        3.43300
C         -2.65100        7.41600        2.79800
C         -3.34300        8.76700        2.85800
H         -2.80000        9.43400        2.38800
H         -3.45300        9.03700        3.79400
H         -4.22200        8.70300        2.43200
C         -2.39500        6.94100        1.38200
H         -1.80800        7.58000        0.92400
H         -3.24600        6.87500        0.90100
H         -1.96300        6.06200        1.40600
C         -3.39900        6.37600        3.62300
H         -3.42000        6.65600        4.56000
H         -2.94400        5.51100        3.54900
H         -4.31600        6.29200        3.28700
C          0.56800        6.42800        6.31500
N          0.13900        5.60000        6.94800
C         -0.42600        4.49000        7.71500
C         -1.76600        4.19700        7.08700
H         -2.34000        4.98900        7.16200
H         -2.18600        3.44300        7.55000
H         -1.64100        3.97200        6.14200
C         -0.52400        4.97100        9.14000
H         -1.05700        5.79300        9.16900
H          0.37500        5.15000        9.48700
H         -0.95500        4.28300        9.68600
C          0.47000        3.32200        7.54300
H          0.52300        3.08800        6.59200
H          0.11400        2.56000        8.04600
H          1.36400        3.54400        7.87400
C          3.93100        6.23600        6.68300
C          3.81100        5.22000        5.77300
H          3.33200        5.35800        4.96500
C          4.38700        3.99500        6.03300
H          4.21900        3.27800        5.43600
C          5.13500        3.78800        7.03900
H          5.53100        2.93700        7.17700
C          5.36400        4.83000        7.93300
H          5.92700        4.69500        8.68500
C          4.77000        6.05800        7.72600
H          4.95200        6.77900        8.31800
C          3.07000        8.81800        7.77600
C          1.86600        8.77400        8.45700
H          1.15100        8.24700        8.12200
C          1.70200        9.49400        9.62500
H          0.87700        9.45500       10.09500
C          2.73600       10.27100       10.11000
H          2.62700       10.76000       10.91600
C          3.92400       10.33200        9.42200
H          4.63100       10.87800        9.74900
C          4.10100        9.60600        8.25800
H          4.92600        9.64800        7.79100
C          1.62500       10.44000        2.68500
C          1.98200       11.76100        2.86100
H          2.68500       11.99500        3.45400
C          1.28900       12.75100        2.15100
H          1.52400       13.66400        2.27100
C          0.27900       12.42300        1.28800
H         -0.18300       13.10300        0.81300
C         -0.06600       11.10700        1.11300
H         -0.76800       10.87600        0.51700
C          0.60800       10.11700        1.80300
H          0.37100        9.20700        1.67000
C          3.19200        8.08000        2.27900
C          3.98600        8.65900        1.29200
H          4.10800        9.60000        1.26500
C          4.59500        7.84900        0.35200
H          5.13200        8.24100       -0.32700
C          4.43600        6.48900        0.38600
H          4.87700        5.94100       -0.25300
C          3.63700        5.91800        1.34900
H          3.51900        4.97500        1.37200
C          3.00700        6.71600        2.28300
H          2.44000        6.32000        2.93500
C          4.53100        8.66700        5.23900
H          5.25700        9.01700        5.81300
H          4.92200        8.01200        4.60900
C          3.88900        9.81000        4.46500
H          4.53700       10.20100        3.82700
H          3.58800       10.52000        5.08600
Pd         5.54400       17.06400        5.24100
P          3.67000       17.39200        6.48400
P          4.57600       18.50900        3.78900
C          7.18100       16.88700        4.07100
N          8.12800       16.83200        3.46200
C          9.39900       16.81000        2.74700
C         10.33100       15.93000        3.56500
H          9.97600       15.01500        3.59300
H         10.39900       16.28300        4.47700
H         11.21900       15.92000        3.15100
C          9.90700       18.24100        2.73800
H          9.28200       18.80600        2.23900
H         10.78900       18.27200        2.31300
H          9.97700       18.56700        3.66000
C          9.14200       16.22600        1.38900
H          8.56000       16.82900        0.88000
H          8.70700       15.35400        1.48500
H          9.99300       16.11600        0.91500
C          6.26800       15.78600        6.60500
N          6.69200       15.07900        7.38500
C          7.28000       14.15400        8.34600
C          8.76300       14.07400        8.00600
H          9.17200       14.95700        8.11900
H          8.86900       13.78200        7.07600
H          9.20000       13.43100        8.60100
C          6.61700       12.82500        8.14000
H          5.65000       12.91700        8.27400
H          6.97600       12.17800        8.78400
H          6.79200       12.51000        7.22900
C          7.04800       14.72600        9.70100
H          6.09400       14.92000        9.81600
H          7.56400       15.55400        9.80000
H          7.33400       14.08000       10.38200
C          3.98900       18.45600        7.88900
C          2.96400       19.10600        8.55500
H          2.06900       18.99400        8.26000
C          3.22100       19.90600        9.63100
H          2.51000       20.36300       10.06600
C          4.50600       20.04800       10.08100
H          4.68900       20.59900       10.83200
C          5.52900       19.38700        9.44100
H          6.41700       19.46300        9.77000
C          5.27900       18.62000        8.33600
H          5.99700       18.20000        7.87600
C          2.93100       15.86700        7.05600
C          2.54000       14.96300        6.08300
H          2.60500       15.19600        5.16400
C          2.06600       13.75600        6.44200
H          1.81800       13.12200        5.77700
C          1.93700       13.42800        7.84900
H          1.48100       12.64200        8.13000
C          2.47400       14.25900        8.72700
H          2.53500       13.99500        9.63800
C          2.95200       15.50500        8.35600
H          3.29200       16.10300        9.01400
C          5.69700       19.75500        3.12500
C          6.71200       20.21300        3.94500
H          6.80100       19.87200        4.82600
C          7.60000       21.16900        3.47900
H          8.30300       21.48100        4.03700
C          7.45600       21.66300        2.20700
H          8.05300       22.33200        1.89200
C          6.48000       21.21000        1.40100
H          6.39800       21.55100        0.51700
C          5.58400       20.24000        1.86100
H          4.89700       19.91700        1.28800
C          3.81000       17.59100        2.44600
C          2.85300       18.15900        1.61400
H          2.61100       19.07100        1.72200
C          2.25900       17.40200        0.63100
H          1.60700       17.79300        0.06100
C          2.60400       16.07500        0.46900
H          2.19100       15.55800       -0.21200
C          3.54100       15.50400        1.28900
H          3.77200       14.58800        1.17900
C          4.15400       16.25800        2.27900
H          4.81000       15.86200        2.84100
C          2.45800       18.26800        5.44300
H          2.01800       17.63300        4.82400
H          1.76200       18.68700        6.00800
C          3.20600       19.33600        4.65300
H          3.55700       20.03200        5.26400
H          2.59900       19.76700        3.99900
C          4.71700        3.74300        7.51400
C          4.38000        4.59500        8.48800
C          3.97300        5.87500        8.14500
C          3.07100       14.71200        6.36200
C          2.48400       13.47200        6.78700
C          1.57200       14.60800        8.65600
C          2.18000       15.80500        8.25800
P          6.37500       12.90400        3.43900
P          9.41900       18.62500        7.38400
P          8.24700        8.82200        7.94100
P          0.46100        3.52800        2.84100
F          7.66100       12.28900        2.75300
F          5.45700       12.04500        2.44800
F          6.39400       14.09500        2.37400
F          5.07300       13.51900        4.10400
F          7.29800       13.75400        4.41500
F          6.35800       11.71900        4.49300
F          8.64200       17.90600        8.54800
F         10.18800       19.37100        6.22900
F          8.49100       17.93300        6.40000
F          9.93400       17.28300        6.97600
F         10.49300       17.46900        7.25200
F         10.50700       18.84700        8.32700
F         10.37300       19.33000        8.44800
F          8.68500       19.92900        7.74700
F          8.43200       19.83900        7.53100
F          8.21900       18.35600        6.34700
F          7.40600        7.54300        7.91600
F          9.12000        8.34900        6.71600
F          9.28400        8.22600        8.94300
F          9.05800       10.18700        7.95300
F          7.37400        9.37600        9.14200
F          7.24500        9.50600        6.91600
F         -1.09300        3.73000        2.66100
F          0.40200        2.21700        1.96400
F          0.69800        4.37800        1.53200
F          2.03000        3.31700        3.00500
F          0.57200        4.83200        3.70900
F          0.20600        2.65800        4.13700
C          9.50000       11.37400        5.06400
H          9.47800       11.20700        4.11800
H          9.36000       12.30900        5.22900
H          8.80900       10.86600        5.49500
C         10.79200       10.97900        5.59500
N         11.79300       10.65000        5.96300
