77
C:\Users\Javier\OneDrive - Universitat de Barcelona\Tesi\4 - Contribucions\Treballs\3-PhD\chapter_1\cif\pc2p\GILZOQ.pc2p.pdb
Pd         1.05900        4.60200       11.07200
S          0.86000        6.90300       11.66800
S          1.84600        7.33300        8.35700
S          3.46400        8.12600       12.29000
S          4.35800        8.41900        9.60800
S          6.16100        9.27800       11.85900
S          3.40600        4.65200       10.71400
S          2.05800        3.37000       13.74800
S          5.63000        2.85100       11.37000
S          4.67100        1.94500       13.90000
S          7.30100        0.92200       12.91900
P          0.86000        2.54300       10.14500
P         -1.16700        4.41400       11.44600
C          2.32500        7.61800       11.06700
C          2.73500        7.79400        9.80000
C          4.74700        8.65300       11.27900
C          1.53100        8.94900        7.62400
H          0.94500        8.73500        6.82600
H          0.76000        8.71500        8.16700
H          2.49800        9.41900        7.31100
C          4.07700        3.51800       11.84200
C          3.63100        3.07600       13.04400
C          5.94700        1.85800       12.75400
C          2.28800        4.93000       14.63200
H          2.96700        4.82100       15.32900
H          2.50700        5.60500       14.02900
H          1.49900        5.06700       15.04100
C          0.43800        2.78200        8.39200
C         -0.38600        1.91200        7.68800
H         -0.78900        1.21500        8.11000
C         -0.55500        2.07000        6.32900
H         -1.07200        1.48700        5.88100
C          0.06600        3.09500        5.65400
H         -0.02400        3.20500        4.74400
C          0.86500        3.98000        6.34200
H          1.29600        4.69000        5.90300
C          1.04700        3.82300        7.70700
H          1.55700        4.38100        8.13900
C          2.16300        1.27000       10.11000
C          2.78800        0.91200        8.91700
H          2.51800        1.32400        8.10300
C          3.75300       -0.07900        8.90600
H          4.13700       -0.33200        8.09600
C          4.12400       -0.71100       10.07900
H          4.79500       -1.38100       10.07600
C          3.52800       -0.36200       11.27000
H          3.74700       -0.77300       12.10400
C          2.54900        0.61900       11.28700
H          2.13600        0.82300       12.05600
C         -2.33000        5.40000       10.47500
C         -3.66400        5.45000       10.84000
H         -3.92100        5.10700       11.69300
C         -4.61500        5.97500        9.96000
H         -5.51000        5.99200       10.26200
C         -4.22700        6.45500        8.73100
H         -4.91600        6.80200        8.12300
C         -2.89900        6.45700        8.38900
H         -2.63100        6.82200        7.54100
C         -1.94100        5.92600        9.24800
H         -0.98800        5.92400        9.04600
C         -1.49800        4.73500       13.19700
C         -1.43400        3.70900       14.13300
H         -1.31100        2.82900       13.84300
C         -1.50400        3.99600       15.48300
H         -1.44100        3.30500       16.08200
C         -1.61800        5.29700       15.91100
H         -1.67800        5.50100       16.77300
C         -1.69200        6.32600       14.99500
H         -1.78100        7.25800       15.26500
C         -1.63600        6.04300       13.63500
H         -1.72900        6.69000       13.06300
C         -1.72200        2.69900       11.03300
H         -2.37400        2.41700       11.67300
H         -2.10900        2.76000       10.16900
C         -0.56200        1.71800       10.95800
H         -0.27500        1.43500       11.84700
H         -0.78900        0.93200       10.51800
