189
C:\Users\Javier\OneDrive - Universitat de Barcelona\Tesi\4 - Contribucions\Treballs\3-PhD\chapter_1\cif\pc2p\GIQBOX.pc2p.pdb
Rh         6.69800        6.88800       14.79900
Cl         6.51500        7.06700       17.16800
P          6.22600        4.62100       15.16800
P          8.93600        6.18900       15.20800
C          7.72200        3.77300       15.78700
C          8.76000        4.75400       16.31300
C          5.78900        8.93600       14.63100
C          6.82300        8.86000       13.66800
C          6.55500        7.78800       12.78300
C          5.24900        7.24700       13.14900
C          4.83900        7.91700       14.31200
C          4.83700       11.17000       15.11400
C          5.62000        9.97900       15.67700
C          7.88500        9.93400       13.46300
C          7.23700        7.50100       11.47400
C          4.47800        6.34800       12.29200
C          3.50500        7.79000       14.98700
C          5.76700        3.42800       13.82400
C          6.46400        3.55100       12.62300
C          6.30500        2.67400       11.58400
C          5.40600        1.63500       11.71900
C          4.75300        1.45300       12.90800
C          4.96400        2.33100       13.94400
F          7.40700        4.49600       12.46500
F          6.99900        2.79600       10.47100
F          5.23900        0.75600       10.73200
F          3.94000        0.43300       13.06600
F          4.34100        2.05700       15.12000
C          4.88000        4.41300       16.42900
C          5.11300        4.24900       17.75200
C          4.10200        4.26500       18.69000
C          2.80200        4.38900       18.29900
C          2.55700        4.54500       16.99800
C          3.54900        4.51400       16.05000
F          6.37500        4.06400       18.24600
F          4.38700        4.09400       20.00200
F          1.83700        4.37300       19.20000
F          1.30000        4.65900       16.52700
F          3.25500        4.65400       14.77100
C          9.93600        5.66900       13.77500
C         10.21800        6.62200       12.81600
C         10.81600        6.36300       11.61400
C         11.19000        5.11500       11.32900
C         11.00900        4.09200       12.26100
C         10.37800        4.40700       13.46200
F          9.93100        7.90000       13.08100
F         11.01100        7.33600       10.72600
F         11.80500        4.80200       10.16200
F         11.44700        2.86800       12.03500
F         10.26200        3.39000       14.32700
C         10.14300        7.20000       16.11500
C          9.94700        8.43900       16.61200
C         10.85600        9.09500       17.39400
C         12.06800        8.51900       17.67000
C         12.35700        7.26200       17.20100
C         11.41200        6.61900       16.43900
F          8.80400        9.08500       16.38800
F         10.61500       10.32000       17.90600
F         12.95700        9.13900       18.43700
F         13.52100        6.68000       17.43600
F         11.74100        5.39400       15.96900
Rh         7.32300        8.55600       23.12900
Cl         7.33300        8.53900       25.50500
P          5.02300        8.35400       23.57700
P          6.81900       10.84300       23.11900
C          4.57000        9.87500       24.47200
C          5.15800       11.12400       23.84600
C          9.31200        7.57900       23.17300
C          8.30400        6.61500       22.88000
C          7.77400        6.94300       21.62100
C          8.32900        8.18900       21.17700
C          9.33000        8.53200       22.12800
C         11.45600        6.61800       23.93800
C         10.27100        7.50800       24.30900
C          8.05900        5.35900       23.65700
C          6.94600        6.02300       20.76600
C          8.09000        8.80200       19.86300
C         10.37600        9.55400       21.91000
C          4.64200        6.95100       24.66500
C          4.37200        6.97600       26.03700
C          4.07800        5.86800       26.82500
C          4.01600        4.64100       26.18000
C          4.29700        4.56700       24.85800
C          4.51000        5.67600       24.14100
F          4.32400        8.15400       26.70200
F          3.88500        6.00300       28.11500
F          3.74800        3.56300       26.93900
F          4.18500        3.35600       24.27000
F          4.69700        5.51800       22.85200
C          3.62900        8.18300       22.37600
C          3.82700        8.22000       20.99900
C          2.76500        8.20000       20.10700
C          1.50000        8.10500       20.58600
C          1.27300        8.05800       21.96800
C          2.30400        8.10000       22.80500
F          5.05200        8.32800       20.48500
F          3.02000        8.19800       18.79300
F          0.48600        8.06000       19.72100
F          0.03500        7.99500       22.38900
F          2.06500        8.07000       24.12600
C          7.79800       12.11300       24.04300
C          8.96100       11.85900       24.74600
C          9.61000       12.85300       25.47800
C          9.06900       14.13400       25.44500
C          7.97700       14.38800       24.73100
C          7.36000       13.42300       24.05300
F          9.50200       10.64900       24.74800
F         10.72500       12.54400       26.15200
F          9.75100       15.09100       26.09900
F          7.50500       15.64300       24.70000
F          6.23900       13.74700       23.36900
C          6.77200       11.57200       21.42800
C          7.86600       12.22200       20.87600
C          7.91000       12.67100       19.56500
C          6.76700       12.48500       18.80300
C          5.69700       11.87300       19.28200
C          5.69700       11.44500       20.57400
F          9.02800       12.38400       21.57100
F          8.99400       13.25500       19.04900
F          6.80500       12.91700       17.51500
F          4.62000       11.67500       18.52300
F          4.60000       10.83900       21.01500
B          9.00800        2.62900        3.22400
F          9.83800        3.57900        3.73100
F          9.74200        1.90800        2.33500
F          8.66400        2.05700        4.40600
F          8.51600        1.58500        3.94100
F          8.17800        3.51800        2.61500
F          7.86600        2.95600        2.56200
B         15.59000        9.16600        5.70900
F         16.01800        8.21000        6.57500
F         15.71000        8.50500        4.52800
F         14.35800        8.73700        5.32500
F         14.48100        9.85900        6.08000
F         15.21000       10.25100        6.43400
F         16.68100        9.97800        5.70400
F         16.16600        9.48000        4.51900
O          7.52200       15.51800       20.77200
C          6.75200       16.17100       20.46100
C          5.53100       15.83700       20.34500
C          6.26200       16.94500       21.61700
H          8.09200        3.23700       15.08400
H          7.46600        3.18800       16.50400
H          8.52500        5.05900       17.19100
H          9.60900        4.31000       16.36900
H          4.75700       11.87100       15.76400
H          5.29300       11.50400       14.33700
H          3.96200       10.86400       14.86400
H          6.49700       10.27600       15.93400
H          5.17500        9.64000       16.45800
H          7.54500       10.61200       12.87500
H          8.07900       10.32000       14.32000
H          8.68800        9.56200       13.09300
H          6.88900        8.08300       10.79400
H          8.17500        7.67000       11.59000
H          7.10400        6.58800       11.21100
H          3.95000        6.86400       11.68000
H          5.06300        5.76700       11.80000
H          3.89900        5.82100       12.84800
H          2.88800        8.38000       14.54800
H          3.19100        6.88500       14.91200
H          3.57100        8.02900       15.91500
H          4.91200        9.81500       25.36700
H          3.61500        9.94300       24.52800
H          4.56400       11.40600       23.14800
H          5.20400       11.82400       24.50200
H         12.05900        6.54700       24.68100
H         11.13000        5.74600       23.70500
H         11.91800        6.99700       23.18600
H          9.80300        7.13900       25.06200
H         10.58700        8.38300       24.54700
H          8.64800        4.68000       23.32100
H          8.22500        5.49500       24.59200
H          7.14800        5.08400       23.52900
H          7.49700        5.44100       20.23700
H          6.38000        5.49700       21.33500
H          6.40300        6.56300       20.18500
H          8.67900        8.42900       19.20000
H          7.17900        8.66700       19.59300
H          8.26300        9.74200       19.94700
H         11.12500        9.15900       21.45800
H          9.99800       10.24400       21.36000
H         10.66900        9.93400       22.74200
H          5.41600       15.23400       19.60600
H          5.33700       15.37800       21.16500
H          4.93400       16.58300       20.24700
H          7.00000       17.45200       21.96000
H          5.55100       17.53900       21.37100
H          5.95200       16.33500       22.29100
