88
C:\Users\Javier\OneDrive - Universitat de Barcelona\Tesi\4 - Contribucions\Treballs\3-PhD\chapter_1\cif\pc2p\GOHCIS.pc2p.pdb
Ru         5.46800        9.62000        3.37200
P          4.84300        9.92800        5.55100
P          3.21200        9.76100        2.98200
N          4.00800        7.08000        4.07900
N          5.14400        7.57000        3.58700
N          5.99800        6.61300        3.20100
O          3.02600        3.73400        4.71800
O          1.86400        5.64000        4.54300
O          5.30800        3.13500        2.94000
O          7.25900        4.24100        2.79300
C          4.11600        5.74500        4.01100
C          5.36600        5.44900        3.46300
C          2.98500        4.90700        4.46000
C          0.64200        4.91000        4.80100
H          0.75100        4.33100        5.59700
H          0.41300        4.34000        4.02600
C         -0.44200        5.91700        5.04000
H         -0.19000        6.49700        5.78900
H         -1.27800        5.45300        5.25400
H         -0.56700        6.46000        4.23500
C          5.94300        4.14900        3.05800
C          7.84100        3.05900        2.18400
H          8.64800        3.32200        1.67500
H          7.19200        2.67200        1.54500
C          8.21800        2.00800        3.19500
H          8.84100        2.39200        3.84700
H          8.64600        1.25500        2.73800
H          7.41200        1.69600        3.65700
C          3.08600       10.48600        5.61000
H          2.71600       10.34300        6.51800
H          3.03000       11.45200        5.39800
C          2.28700        9.67600        4.58400
H          1.38000       10.05600        4.47800
H          2.20000        8.73600        4.88000
C          4.91100        8.43500        6.60900
C          6.05800        7.63500        6.54400
H          6.79300        7.90500        6.00600
C          6.12600        6.45300        7.26000
H          6.91600        5.92700        7.22100
C          5.05800        6.02800        8.03400
H          5.10300        5.20300        8.50400
C          3.92800        6.81600        8.11100
H          3.19400        6.53800        8.64500
C          3.85500        8.01700        7.41200
H          3.07700        8.55800        7.48400
C          5.70000       11.19900        6.55500
C          6.36700       10.90300        7.74500
H          6.39100       10.00800        8.06400
C          6.99800       11.91100        8.46800
H          7.45000       11.69900        9.27600
C          6.97200       13.21700        8.01600
H          7.40700       13.90200        8.51200
C          6.30800       13.52700        6.83900
H          6.28300       14.42600        6.53100
C          5.68000       12.52700        6.11100
H          5.23000       12.74500        5.30400
C          2.47600       11.27900        2.25800
C          3.11400       12.50700        2.42600
H          3.97000       12.54300        2.83600
C          2.50300       13.68200        1.99700
H          2.94300       14.51500        2.11400
C          1.25300       13.63900        1.40300
H          0.84200       14.44100        1.10400
C          0.60200       12.42700        1.24100
H         -0.26100       12.40200        0.84400
C          1.21000       11.25100        1.66100
H          0.76300       10.42100        1.54100
C          2.50900        8.43500        1.94000
C          1.30100        7.80500        2.22300
H          0.78800        8.08600        2.97200
C          0.83900        6.76700        1.42000
H          0.01400        6.34200        1.62100
C          1.58300        6.35500        0.32800
H          1.27100        5.64000       -0.21500
C          2.78000        6.98200        0.02800
H          3.28400        6.70500       -0.72800
C          3.24200        8.01300        0.83200
H          4.06800        8.43600        0.62600
C          6.64800        9.68700        1.49500
H          6.47400        9.15600        0.66500
C          7.49700        9.32300        2.55700
H          8.02900        8.47700        2.61200
C          7.54000       10.38100        3.48000
H          8.11100       10.42500        4.30100
C          6.69400       11.41000        2.98800
H          6.56400       12.31500        3.39500
C          6.16800       10.97100        1.77400
H          5.57700       11.50800        1.17400
