82
C:\Users\Javier\OneDrive - Universitat de Barcelona\Tesi\4 - Contribucions\Treballs\3-PhD\chapter_1\cif\pc2p\GOHCOY.pc2p.pdb
Ru         2.86400        4.99400       12.13500
P          1.23800        4.84100       10.54600
P          1.10700        5.16800       13.58200
O          3.96200       11.38800       12.02500
O          5.63900        9.90100       12.12400
N          1.66800        7.78400       12.01200
N          2.80400        7.06100       12.02700
N          3.89200        7.81200       12.02300
C          2.05500        9.07100       11.99100
C          3.44900        9.08600       12.00700
C          4.34800       10.24300       12.03900
C          6.59000       11.00600       12.27600
H          7.40100       10.67700       12.73900
H          6.18200       11.71100       12.83900
C          6.97500       11.58500       10.96600
H          7.33900       10.88000       10.39100
H          7.65300       12.27900       11.10100
H          6.18500       11.97900       10.53800
C          1.04100       10.17400       11.97400
H          0.14200        9.79300       12.05500
H          1.11000       10.66900       11.13100
H          1.20700       10.78200       12.72300
C         -0.38000        4.48000       11.35400
H         -1.12000        4.71900       10.74200
H         -0.44500        3.51100       11.55100
C         -0.50300        5.26100       12.62200
H         -1.24000        4.89600       13.17200
H         -0.71200        6.20600       12.41400
C          1.28600        3.48900        9.30100
C          1.27700        2.17000        9.76100
H          1.30300        2.00000       10.69500
C          1.23100        1.10700        8.88000
H          1.23000        0.21600        9.20700
C          1.18700        1.34500        7.51700
H          1.13100        0.62000        6.90600
C          1.22600        2.64500        7.04400
H          1.21900        2.80800        6.10900
C          1.27500        3.71400        7.93500
H          1.30300        4.60400        7.60300
C          0.98200        6.34000        9.52700
C          2.09600        6.91600        8.95100
H          2.93700        6.48300        9.03100
C          2.01700        8.10200        8.26700
H          2.79300        8.47600        7.86300
C          0.79600        8.74900        8.16700
H          0.73900        9.58700        7.72500
C         -0.33000        8.18700        8.70400
H         -1.16900        8.62500        8.60900
C         -0.25000        6.97400        9.38600
H         -1.03400        6.58300        9.75300
C          1.03300        6.61900       14.70000
C         -0.17700        7.22700       15.03200
H         -0.99100        6.88700       14.67900
C         -0.19500        8.33500       15.87900
H         -1.01700        8.75700       16.09700
C          0.99500        8.81400       16.40000
H          0.98800        9.57100       16.97400
C          2.18600        8.19800       16.09600
H          2.99600        8.51800       16.47200
C          2.20400        7.10900       15.24000
H          3.03100        6.69800       15.02100
C          0.85800        3.78000       14.75600
C          0.73400        3.97700       16.12900
H          0.76200        4.85900       16.48300
C          0.57100        2.89300       16.99100
H          0.47500        3.03700       17.92500
C          0.54900        1.61700       16.48200
H          0.45500        0.87500       17.06800
C          0.66500        1.40200       15.11400
H          0.63700        0.51800       14.76600
C          0.82200        2.48200       14.25500
H          0.90500        2.33400       13.32100
C          5.07500        4.99600       12.42900
H          5.64500        5.81400       12.52000
C          4.50000        4.29900       13.48100
H          4.59700        4.50800       14.45400
C          3.83300        3.18900       12.92400
H          3.37700        2.46600       13.44400
C          3.98900        3.20600       11.54800
H          3.67700        2.50100       10.91300
C          4.77400        4.34100       11.20900
H          5.11100        4.58200       10.30100
