59
C:\Users\Javier\OneDrive - Universitat de Barcelona\Tesi\4 - Contribucions\Treballs\3-PhD\chapter_1\cif\pc2p\GOTVOA.pc2p.pdb
Ru         9.66300       -1.97300       13.57600
C          8.94500       -0.21700       13.41000
O          8.54500        0.85900       13.35000
C         10.72200       -1.66100       12.02900
O         11.34000       -1.47600       11.06300
C          8.06200       -3.02000       13.28300
O          7.08100       -3.57000       13.05300
P         10.99100       -3.82900       14.18200
P          9.59000       -1.67900       15.92000
C         10.55900       -4.28400       15.91800
C         10.58400       -2.99600       16.73600
C         12.81500       -3.58100       14.31000
C         13.39100       -2.36900       13.94300
C         14.76000       -2.16100       14.07100
C         15.57300       -3.15700       14.58200
C         15.01400       -4.36100       14.97200
C         13.65100       -4.57800       14.82300
C         10.82200       -5.37100       13.21600
C         10.48300       -5.29400       11.86900
C         10.37700       -6.44300       11.09500
C         10.60100       -7.68500       11.66300
C         10.91900       -7.77800       13.00300
C         11.03000       -6.63300       13.77800
C         10.24500       -0.14600       16.68600
C         11.16300        0.62900       15.99800
C         11.70900        1.77200       16.55800
C         11.31900        2.16000       17.82300
C         10.40800        1.40100       18.53000
C          9.88100        0.23800       17.97500
C          7.92300       -1.81100       16.65700
C          6.97600       -0.83800       16.32600
C          5.67700       -0.91800       16.81500
C          5.31600       -1.95200       17.65700
C          6.22900       -2.91700       17.99400
C          7.53800       -2.84800       17.50200
H          9.65700       -4.69400       15.95100
H         11.21400       -4.93200       16.27700
H         11.52000       -2.68700       16.83900
H         10.22000       -3.17100       17.64000
H         12.84100       -1.67400       13.60200
H         15.14000       -1.33300       13.80400
H         16.50900       -3.01500       14.66600
H         15.56400       -5.04100       15.34100
H         13.28000       -5.41600       15.07400
H         10.32300       -4.44600       11.47300
H         10.15100       -6.37700       10.17600
H         10.53600       -8.47100       11.13200
H         11.06200       -8.63200       13.39700
H         11.24900       -6.70900       14.70100
H         11.42400        0.37000       15.12200
H         12.34600        2.28500       16.07500
H         11.67900        2.94900       18.20900
H         10.13800        1.67400       19.40000
H          9.27200       -0.29300       18.47600
H          7.22400       -0.11400       15.76100
H          5.03600       -0.26100       16.57000
H          4.43200       -1.99400       18.00400
H          5.97300       -3.63400       18.56100
H          8.17000       -3.51400       17.74800
