99
C:\Users\Javier\OneDrive - Universitat de Barcelona\Tesi\4 - Contribucions\Treballs\3-PhD\chapter_1\cif\pc2p\GUDBUC.pc2p.pdb
Ru        -6.66100        2.10100        4.89100
P         -4.98200        3.52800        4.11700
P         -4.95700        0.51400        5.05200
C         -6.37400        2.74700        6.99500
H         -6.25900        2.03100        7.66700
H         -5.78800        3.53100        7.14300
C         -7.69700        3.01400        6.56900
C         -7.89100        3.88300        5.49300
H         -7.42500        4.75400        5.53300
H         -8.80700        3.93700        5.12200
C         -8.86600        2.35400        7.27100
H         -8.53100        1.78500        7.99300
H         -9.36300        1.80800        6.62800
H         -9.45300        3.04300        7.64100
C         -7.21200        1.46000        2.84000
H         -7.25800        2.16900        2.15000
H         -6.81100        0.61400        2.51600
C         -8.32400        1.34700        3.70900
C         -8.19900        0.46900        4.83100
H         -7.87000       -0.44800        4.64700
H         -8.91700        0.50600        5.51000
C         -9.58600        2.11500        3.44000
H        -10.24400        1.91600        4.13800
H         -9.94800        1.85300        2.56700
H         -9.39000        3.07500        3.43800
C         -3.48600        2.46700        3.85900
H         -3.56300        1.97500        3.00300
H         -2.67300        3.03200        3.82200
C         -3.38700        1.48100        5.02400
H         -3.26900        1.96900        5.87800
H         -2.61400        0.87700        4.89800
C         -4.18400        4.97400        5.04000
H         -3.64100        5.37500        4.30200
C         -5.08100        6.12800        5.36000
H         -5.52800        6.41700        4.52400
H         -5.78700        5.81000        5.97800
C         -4.43400        7.30400        5.96700
H         -4.11700        7.88700        5.23300
H         -5.12900        7.80900        6.46000
C         -3.33300        7.08600        6.86400
H         -3.69500        6.89700        7.76600
H         -2.81100        7.92400        6.92400
C         -2.40300        5.97700        6.49000
H         -1.84300        5.74700        7.27400
H         -1.80000        6.29000        5.76900
C         -3.14500        4.71200        6.01200
H         -2.48600        4.08900        5.61400
H         -3.54800        4.26300        6.79700
C         -5.27600        4.22700        2.41000
H         -5.35400        3.42400        1.82100
C         -6.62300        4.93700        2.26900
H         -7.33800        4.37200        2.65500
H         -6.60300        5.79100        2.76900
C         -6.92900        5.21300        0.80200
H         -7.02400        4.35400        0.32100
H         -7.78700        5.69800        0.73300
C         -5.83800        6.03400        0.14700
H         -5.81600        6.93700        0.55200
H         -6.03700        6.13500       -0.81900
C         -4.47600        5.37400        0.31600
H         -3.77900        5.97400       -0.04500
H         -4.45500        4.53400       -0.20900
C         -4.16800        5.06300        1.77600
H         -4.06500        5.91000        2.27900
H         -3.31200        4.56900        1.83300
C         -4.82000       -0.37200        6.69100
H         -4.66800        0.36200        7.35300
C         -3.63000       -1.31400        6.90000
H         -2.79000       -0.84700        6.65900
H         -3.72400       -2.10200        6.30700
C         -3.55300       -1.78100        8.35900
H         -2.81500       -2.43200        8.45500
H         -3.35000       -1.00400        8.93800
C         -4.85600       -2.42500        8.82400
H         -5.00500       -3.26600        8.32400
H         -4.79100       -2.64600        9.78800
C         -6.01900       -1.48400        8.60000
H         -5.91200       -0.69000        9.18100
H         -6.85800       -1.94000        8.85700
C         -6.12700       -1.02600        7.14300
H         -6.87000       -0.37800        7.05200
H         -6.32400       -1.80400        6.56400
C         -4.60300       -0.73500        3.67800
H         -4.87000       -0.27100        2.83300
C         -3.15500       -1.17100        3.44800
H         -2.83400       -1.67400        4.23800
H         -2.58300       -0.36900        3.34300
C         -3.02700       -2.05300        2.19800
H         -3.25800       -1.51800        1.39800
H         -2.09000       -2.35000        2.10500
C         -3.92600       -3.26400        2.25700
H         -3.61400       -3.87000        2.97800
H         -3.87400       -3.75600        1.40000
C         -5.35800       -2.86800        2.51900
H         -5.90300       -3.68500        2.64100
H         -5.70900       -2.38500        1.72900
C         -5.51200       -1.98100        3.74800
H         -5.28500       -2.50500        4.55900
H         -6.45600       -1.69300        3.82800
