176
C:\Users\Javier\OneDrive - Universitat de Barcelona\Tesi\4 - Contribucions\Treballs\3-PhD\chapter_1\cif\pc2p\GUNHIG.pc2p.pdb
Ru        -5.80800        3.60400        2.34600
P         -7.01000        2.10800        3.56400
P         -7.26900        3.08900        0.65300
O         -4.33600        2.14700        1.82600
N         -6.99000        5.29400        3.05600
N         -6.18900        6.34500        3.50900
N         -4.55600        4.98000        1.10500
N         -4.60900        6.26700        1.58800
N         -4.29600        4.10700        3.82600
N         -3.87600        5.42900        3.81800
C         -8.55000        1.60200        2.67300
C         -8.33500        1.67600        1.14600
C         -8.26200        5.63200        3.37600
C         -8.23900        6.91900        3.99200
C         -6.96200        7.32800        4.07000
C         -9.51800        4.94800        3.05200
C        -10.43200        5.86300        2.21100
H        -10.73500        6.59700        2.75100
H        -11.18900        5.36200        1.89900
H         -9.94200        6.20200        1.45800
C        -10.29300        4.57800        4.31500
H        -10.62000        5.37700        4.73400
H         -9.71100        4.11400        4.92200
H        -11.03000        4.01000        4.08200
C         -6.39500        8.61400        4.60100
C         -5.59800        8.39300        5.87800
H         -6.16500        8.00200        6.54500
H         -5.26200        9.23500        6.19600
H         -4.86100        7.80300        5.69900
C         -7.54100        9.62400        4.81900
H         -7.18000       10.45100        5.14400
H         -8.16000        9.27100        5.46300
H         -7.99500        9.77500        3.98700
C         -4.02300        5.05700       -0.08700
C         -3.76400        6.38700       -0.43400
C         -4.16700        7.12800        0.65000
C         -3.54000        3.84600       -0.87500
C         -2.14900        3.45800       -0.42100
H         -2.13900        3.36600        0.53400
H         -1.52500        4.13900       -0.68400
H         -1.90100        2.62400       -0.82600
C         -3.49600        4.13400       -2.37800
H         -2.79900        4.76800       -2.56200
H         -4.34100        4.49500       -2.66000
H         -3.32100        3.31900       -2.85600
C         -4.24000        8.63600        0.83000
C         -5.69300        9.09100        0.64800
H         -5.77900       10.00800        0.92100
H         -6.27000        8.54300        1.18300
H         -5.94000        9.00900       -0.27600
C         -3.32500        9.35800       -0.09900
H         -2.41700        9.09500        0.07500
H         -3.41400       10.30500        0.03300
H         -3.55200        9.13900       -1.00700
C         -3.32800        3.44300        4.53200
C         -2.33000        4.29900        4.93100
C         -2.68100        5.55400        4.47100
C         -3.45600        1.99700        4.88600
C         -3.65500        1.84400        6.37700
H         -3.73200        0.91200        6.59700
H         -4.45500        2.30300        6.64200
H         -2.90400        2.22100        6.84100
C         -2.26000        1.17000        4.41500
H         -2.19000        1.22500        3.45900
H         -2.38200        0.25500        4.67600
H         -1.45700        1.51200        4.81500
C         -1.95400        6.83100        4.54500
C         -1.31600        7.18700        3.22300
H         -0.92700        8.06300        3.28000
H         -1.98400        7.17500        2.53300
H         -0.63100        6.54700        3.01600
C         -0.87400        6.81700        5.60000
H         -1.25900        6.58500        6.44700
H         -0.47100        7.68600        5.65800
H         -0.20500        6.16900        5.36500
C         -6.33300        0.43900        3.93800
C         -6.21900       -0.05400        5.26300
C         -5.72300       -1.33200        5.51000
C         -5.37600       -2.14500        4.42600
C         -5.49300       -1.69200        3.15800
C         -5.93900       -0.39600        2.89900
C         -7.64000        2.61000        5.20500
C         -7.09000        3.68000        5.87400
C         -7.56100        4.08400        7.07600
C         -8.53000        3.43700        7.64500
C         -9.17800        2.29900        7.05100
C         -8.66700        1.92000        5.81200
C         -6.70300        2.45800       -0.98700
C         -5.92600        1.28800       -1.05400
C         -5.46100        0.81100       -2.22600
C         -5.77200        1.44600       -3.41900
C         -6.55700        2.57600       -3.37400
C         -6.99500        3.07500       -2.17500
C         -8.33300        4.43200        0.01100
C         -9.60300        4.18100       -0.52200
C        -10.28700        5.17200       -1.19700
C         -9.70000        6.43100       -1.37400
C         -8.48800        6.68900       -0.81100
C         -7.75700        5.69700       -0.10600
B         -4.77600        6.44400        3.10800
H         -4.46700        7.31600        3.33800
H         -9.23900        2.19000        2.90500
H         -4.24600        1.55700        1.32600
H         -8.75100        0.71600        2.90300
H         -3.64700        2.52600        1.81300
H         -9.18400        1.76900        0.73000
H         -7.93000        0.86700        0.85200
H         -8.99800        7.41400        4.28600
H         -9.31300        4.16400        2.56700
H         -5.78000        8.98500        3.95200
H         -3.41400        6.71000       -1.27000
H         -4.14500        3.09900       -0.72400
H         -3.97100        8.83600        1.71800
H         -1.53500        4.06700        5.41200
H         -4.23800        1.65300        4.46300
H         -2.56500        7.53200        4.75400
H         -6.49500        0.50000        6.00800
H         -5.60100       -1.64900        6.41800
H         -5.05300       -3.04300        4.58000
H         -5.28600       -2.27100        2.41100
H         -5.99100       -0.07500        2.00800
H         -6.35800        4.17000        5.48100
H         -7.19500        4.82500        7.52700
H         -8.83800        3.71200        8.51900
H         -9.93500        1.82500        7.46400
H         -9.01400        1.16800        5.37200
H         -5.73300        0.80700       -0.22900
H         -4.91300        0.03000       -2.23600
H         -5.46500        1.11100       -4.26400
H         -6.80200        3.01800       -4.18800
H         -7.51500        3.86900       -2.16900
H         -9.98100        3.31300       -0.43400
H        -11.15500        5.00400       -1.56500
H        -10.14800        7.11200       -1.87800
H         -8.11700        7.55800       -0.89100
H         -6.91300        5.89500        0.29800
Cl        -2.08800       -4.75700       -3.08900
O         -3.32300        0.21100        0.60800
O         -4.74800       -1.43300        0.07200
C         -3.65300       -0.89100        0.01800
C         -2.53900       -1.53800       -0.79500
C         -2.78500       -2.68100       -1.46400
C         -1.77000       -3.25800       -2.21600
C         -0.49300       -2.69600       -2.27700
C         -0.25300       -1.54500       -1.63500
C         -1.33800       -0.97700       -0.86300
H         -3.66800       -3.10100       -1.41100
H          0.18600       -3.17000       -2.75500
H          0.59500       -1.09700       -1.70700
H         -1.19300       -0.17700       -0.36700
O         -5.02900       12.52800        2.12900
C         -4.17400       13.69900        2.88100
C         -3.53500       13.13400        3.91500
C         -3.87900       11.71400        3.69300
C         -4.77000       11.51700        2.82800
H         -3.44700       14.06500        2.23300
H         -4.70600       14.48500        3.03400
H         -2.64500       13.37200        4.00900
H         -3.99700       13.56400        4.74600
H         -3.10500       11.23300        3.52800
H         -4.23100       11.33600        4.59000
H         -5.61000       11.22900        3.26300
H         -4.49200       10.76900        2.29100
O         -3.86400       -0.77100       -6.14600
C         -3.23800        0.28300       -6.37100
C         -2.05800        0.62800       -5.41000
C         -1.81200       -0.33700       -4.82600
C         -3.34900       -1.35600       -5.08200
H         -2.74900        0.14000       -7.29500
H         -3.76900        1.03200       -6.53900
H         -1.26300        0.83800       -5.83000
H         -2.36000        1.37900       -4.87700
H         -1.24300       -0.87800       -4.99200
H         -1.99000       -0.18100       -3.82500
H         -3.93500       -1.34900       -4.26700
H         -3.07200       -2.27200       -5.16700
