69
C:\Users\Javier\OneDrive - Universitat de Barcelona\Tesi\4 - Contribucions\Treballs\3-PhD\chapter_1\cif\pc2p\HACVOW01.pc2p.pdb
Ru         6.91100        0.77300       15.33400
Cl         7.71500        3.07500       15.13700
P          7.01500        0.83500       13.06900
P          9.01000       -0.11600       15.14600
C          6.31700       -0.52700       12.05800
C          5.97000       -1.73400       12.63500
C          5.45300       -2.76500       11.86500
C          5.27700       -2.58800       10.52000
C          5.63500       -1.41300        9.92500
C          6.14900       -0.38300       10.69100
C          6.25000        2.26800       12.23000
C          6.91000        3.13600       11.40000
C          6.22500        4.19300       10.80600
C          4.92100        4.38900       11.04300
C          4.25200        3.53100       11.86100
C          4.90600        2.46900       12.45700
C          9.24400       -1.79600       15.84000
C          9.85800       -1.99500       17.06400
C          9.96800       -3.25200       17.61700
C          9.45800       -4.34600       16.94900
C          8.84100       -4.16800       15.74000
C          8.73500       -2.91200       15.19700
C         10.44100        0.76900       15.87000
C         10.22800        1.78700       16.78200
C         11.30400        2.45400       17.35100
C         12.57900        2.12400       16.99900
C         12.80200        1.11100       16.10500
C         11.74300        0.42200       15.54300
C          5.94000       -0.87900       16.35200
C          4.98600       -0.20200       15.58400
C          4.84300        1.09700       16.09300
C          5.72100        1.21100       17.16500
C          6.39900        0.01000       17.35100
C          8.77800        0.81500       12.57200
C          9.45200       -0.30000       13.36100
C          5.04900        5.06900       15.98000
Cl         3.43800        4.46700       16.13400
Cl         5.68400        5.51500       17.51800
Cl         5.08700        6.41300       14.90900
H          6.08600       -1.85700       13.56200
H          5.21900       -3.59500       12.27800
H          4.91600       -3.29300        9.99000
H          5.52700       -1.30600        8.98500
H          6.39400        0.43200       10.26900
H          7.83800        3.01200       11.23600
H          6.68800        4.78300       10.23200
H          4.47300        5.11700       10.64100
H          3.32800        3.66000       12.01700
H          4.43200        1.87900       13.02200
H         10.20900       -1.25200       17.52400
H         10.38800       -3.36800       18.45400
H          9.53200       -5.21400       17.31900
H          8.49000       -4.91200       15.27300
H          8.30500       -2.80700       14.36100
H          9.33800        2.03000       17.02200
H         11.15600        3.14200       17.98900
H         13.31700        2.59100       17.37500
H         13.69600        0.87400       15.86800
H         11.91100       -0.29100       14.93800
H          6.23000       -1.77100       16.22200
H          4.50600       -0.56100       14.84500
H          4.24800        1.77100       15.77500
H          5.83300        1.99700       17.69100
H          7.04300       -0.17300       18.02600
H          9.17800        1.65200       12.78000
H          8.85100        0.64800       11.64500
H          9.15000       -1.14400       13.04100
H         10.39900       -0.23800       13.26400
H          5.59300        4.37200       15.62600
