92
C:\Users\Javier\OneDrive - Universitat de Barcelona\Tesi\4 - Contribucions\Treballs\3-PhD\chapter_1\cif\pc2p\HAKGOP.pc2p.pdb
Pd         0.59900        0.73700       15.80100
Cl         2.05500       -0.84000       14.86300
P         -0.89100        2.03700       16.92400
P          2.26900        1.72100       17.08400
N         -1.31700       -0.49800       13.63900
C          0.01200        3.29600       17.90300
C          1.42300        2.72100       18.34700
C         -2.00800        3.12500       15.89800
C         -1.18500        3.79400       14.77900
C         -2.60100        4.29100       16.63700
C         -3.20000        2.33200       15.28500
C         -1.92200        0.96400       18.07200
C         -0.91600        0.35800       19.17000
C         -2.53900       -0.23300       17.29100
C         -2.99800        1.72600       18.85300
C          3.29100        2.90700       16.02400
C          3.79900        2.22300       14.84200
C          4.43000        3.51400       16.72100
C          2.37700        3.98000       15.51800
C          3.40000        0.60600       18.09300
C          2.58800       -0.54400       18.60000
C          4.48600       -0.01600       17.22800
C          4.04200        1.33700       19.36000
C         -0.70700        0.01600       14.48300
C         -1.92200       -1.24400       12.64600
C         -1.13900       -1.74100       11.59100
C         -1.68800       -2.55000       10.59800
C         -3.00000       -2.86100       10.68300
C         -3.80800       -2.27000       11.65400
C         -3.37500       -1.46200       12.68900
C         -4.20000       -0.90200       13.72300
C          0.32700       -1.39900       11.52700
C         -3.66100       -3.77800        9.69100
H          0.15200        4.12000       17.39400
H         -0.54700        3.60400       18.68000
H          1.26300        2.15700       19.20800
H          2.00000        3.43500       18.72900
H         -0.49100        4.36600       15.11200
H         -0.76700        3.15300       14.18500
H         -1.73300        4.36900       14.18300
H         -1.92700        4.85600       17.05500
H         -3.17200        4.87000       16.12800
H         -3.16200        3.98300       17.40100
H         -3.74600        2.86900       14.66300
H         -2.88600        1.58000       14.73000
H         -3.78800        1.97500       15.92900
H         -1.28900       -0.23900       19.80800
H         -0.17500       -0.19100       18.72900
H         -0.42800        1.03900       19.63900
H         -3.02300       -0.88000       17.84600
H         -3.19700        0.06200       16.62600
H         -1.89200       -0.75900       16.79300
H         -2.61900        2.46900       19.33000
H         -3.67600        2.08800       18.26200
H         -3.47100        1.18500       19.50600
H          3.05600        1.75800       14.29900
H          4.24800        2.73800       14.14700
H          4.40000        1.46000       15.01300
H          5.07800        2.81400       17.08800
H          5.01200        4.11100       16.23800
H          4.17200        3.99000       17.53600
H          2.01300        4.55700       16.18500
H          2.80400        4.63800       14.85500
H          1.60500        3.66200       14.98600
H          1.83900       -0.23000       19.21600
H          2.12300       -1.03100       17.91800
H          3.05300       -1.19400       19.14900
H          5.06500       -0.67300       17.68000
H          4.12300       -0.51200       16.45700
H          5.09300        0.63400       16.84300
H          4.58200        0.74300       19.93000
H          4.61600        2.06300       19.11500
H          3.36700        1.70700       19.96400
H         -1.04600       -2.94500        9.90000
H         -4.75900       -2.47100       11.61400
H         -3.72000       -0.35000       14.38200
H         -4.95900       -0.37500       13.44900
H         -4.61900       -1.61400       14.31800
H          0.92700       -2.15200       11.60800
H          0.61100       -0.93000       10.70600
H          0.58600       -0.78100       12.24900
H         -4.39100       -3.34400        9.17300
H         -3.10200       -4.19000        9.00700
H         -4.12900       -4.55100       10.11300
P          2.05900        3.15200        1.34300
F          1.88500        3.52900       -0.12200
F          1.89500        1.64800        1.01300
F          0.53800        3.18700        1.60500
F          2.29800        2.79900        2.83300
F          2.23500        4.64900        1.67400
F          3.52700        3.07900        1.16100
O          5.10000        0.31100        9.43300
