84
C:\Users\Javier\OneDrive - Universitat de Barcelona\Tesi\4 - Contribucions\Treballs\3-PhD\chapter_1\cif\pc2p\HANPUK.pc2p.pdb
Rh         6.82900        9.59900        2.51400
Cl         4.73600        9.26100        1.33800
P          8.86100        9.61300        3.39500
P          7.76000       10.64500        0.78500
O          7.46300        7.42600        1.98300
O          8.68600       12.29200       -1.43900
O          5.97700        8.46100        4.22800
C          9.95300       10.85100        2.58200
H         10.07000       11.62400        3.18700
H         10.84500       10.44600        2.43400
C          9.40600       11.34100        1.24800
H         10.05700       11.11600        0.53800
H          9.33400       12.32900        1.28300
C          9.54600        7.98800        2.96400
C          8.76400        7.06500        2.28000
C          9.28400        5.83200        1.92900
H          8.75200        5.19600        1.46500
C         10.58700        5.54300        2.26200
H         10.94800        4.69900        2.02000
C         11.38600        6.44600        2.93700
H         12.28500        6.22600        3.15500
C         10.86200        7.65800        3.28600
H         11.40000        8.28600        3.75400
C          6.68500        6.52700        1.16600
H          7.12400        6.41300        0.29600
H          5.78800        6.90000        1.03200
H          6.61500        5.65700        1.61300
C          9.04900        9.76100        5.17600
C          8.98300        8.61400        5.97200
H          8.96200        7.75200        5.57400
C          8.94800        8.75300        7.35200
H          8.88700        7.97400        7.89300
C          8.99800        9.97500        7.94700
H          8.98100       10.04900        8.89500
C          9.07300       11.10800        7.15900
H          9.11100       11.96400        7.56900
C          9.09300       11.01000        5.79200
H          9.13800       11.79700        5.26000
C          6.83300       11.98900       -0.03900
C          7.43500       12.66100       -1.10200
C          6.72400       13.68800       -1.75500
H          7.11800       14.15500       -2.48100
C          5.45500       14.00800       -1.33400
H          4.98200       14.69700       -1.78600
C          4.84700       13.36200       -0.27500
H          3.97400       13.60500        0.01000
C          5.54800       12.34700        0.36100
H          5.14300       11.88500        1.08600
C          9.36900       13.08700       -2.42200
H          8.89800       13.02000       -3.28000
H         10.28600       12.75700       -2.52900
H          9.38900       14.02200       -2.13000
C          8.12600        9.39600       -0.47800
C          7.17600        9.08700       -1.43500
H          6.36400        9.57800       -1.47200
C          7.40700        8.05200       -2.34600
H          6.76400        7.85400       -3.01700
C          8.56700        7.32800       -2.26600
H          8.72600        6.62500       -2.88400
C          9.49500        7.60700       -1.30900
H         10.28700        7.08200       -1.25200
C          9.28800        8.66500       -0.41000
H          9.94600        8.87500        0.24000
C          6.29400       11.34500        3.33700
C          4.99900       11.38700        3.84000
H          4.44200       10.62300        3.74400
C          4.50100       12.50000        4.47200
H          3.60900       12.49800        4.79800
C          5.29100       13.63100        4.63600
H          4.95000       14.40100        5.07600
C          6.56800       13.61100        4.15000
H          7.12400       14.37300        4.25700
C          7.05800       12.49400        3.50300
H          7.94500       12.51200        3.16300
C          5.72200        8.85200        5.57400
H          6.13100        9.72500        5.74500
H          6.10400        8.18800        6.18600
H          4.75400        8.91100        5.72000
H          5.98700        7.83500        4.08400
B          1.61600       14.80300        5.42400
F          1.62800       13.96900        4.31600
F          2.74000       15.61800        5.43300
F          0.51600       15.62200        5.37300
F          1.60400       14.04700        6.57000
