90
C:\Users\Javier\OneDrive - Universitat de Barcelona\Tesi\4 - Contribucions\Treballs\3-PhD\chapter_1\cif\pc2p\HANQAR.pc2p.pdb
Rh         5.56200        8.17200       20.81500
Br         7.21500        8.04600       22.76100
P          4.02200        7.99200       19.22700
P          4.09000        9.41700       21.92000
O          4.61300        6.13200       21.45100
O          2.38800       11.21900       23.38100
C          2.62100        9.14400       19.48900
H          2.58900        9.78500       18.73600
H          1.77700        8.62900       19.48100
C          2.70900        9.93100       20.80400
H          1.85500        9.82900       21.29200
H          2.81800       10.89300       20.58900
C          3.32300        6.33300       19.47000
C          3.68200        5.58100       20.59300
C          3.11800        4.33300       20.80700
H          3.36200        3.82100       21.57000
C          2.19800        3.83800       19.89900
H          1.82200        2.97600       20.04000
C          1.81500        4.57400       18.79100
H          1.17300        4.22900       18.18200
C          2.38500        5.82400       18.58100
H          2.13000        6.33600       17.82200
C          4.81400        5.46600       22.70800
H          3.95100        5.34400       23.15400
H          5.40200        6.00800       23.27500
H          5.22800        4.59100       22.55200
C          4.50500        8.06700       17.48600
C          4.99600        6.91200       16.86700
H          5.01500        6.08900       17.34300
C          5.45600        6.96700       15.55900
H          5.79000        6.18400       15.13800
C          5.42900        8.16500       14.86600
H          5.74100        8.20300       13.97100
C          4.95400        9.29400       15.47200
H          4.94500       10.11200       14.99000
C          4.48300        9.26800       16.78100
H          4.14900       10.05900       17.18800
C          4.63000       10.91000       22.79800
C          3.67700       11.63100       23.52900
C          4.05800       12.69700       24.32800
H          3.40700       13.18000       24.82300
C          5.39000       13.05300       24.39800
H          5.65600       13.77800       24.95300
C          6.33600       12.36800       23.67200
H          7.24800       12.62900       23.72000
C          5.96100       11.29800       22.87000
H          6.61800       10.83000       22.36800
C          1.42300       11.69800       24.31300
H          1.73200       11.51500       25.22400
H          0.56800       11.24200       24.16200
H          1.30500       12.66300       24.19400
C          6.38200        9.79300       19.96000
C          7.76800        9.82000       19.87400
H          8.27600        9.10600       20.24100
C          8.41600       10.87600       19.25900
H          9.36500       10.87500       19.20800
C          7.70300       11.93600       18.71600
H          8.15600       12.65600       18.29400
C          6.33300       11.92700       18.79900
H          5.83200       12.64300       18.42800
C          5.67900       10.87700       19.42100
H          4.73100       10.89300       19.48400
C          3.33600        8.41700       23.23300
C          3.99300        8.29500       24.45700
H          4.82000        8.73900       24.59700
C          3.43800        7.52700       25.46900
H          3.89600        7.43100       26.29600
C          2.22500        6.89900       25.28100
H          1.84200        6.38200       25.97900
C          1.56800        7.02600       24.07300
H          0.73000        6.59500       23.94500
C          2.11600        7.77400       23.04400
H          1.66300        7.84600       22.21300
O          6.84500        6.84600       19.66500
H          7.28900        7.10000       19.04100
C          7.48900        5.68500       20.15500
H          8.11400        5.93500       20.86700
H          7.97900        5.25100       19.42700
H          6.81800        5.06500       20.51200
O          8.40600        7.15900       17.53800
H          8.22000        6.45800       17.11700
C          8.71000        8.19000       16.62600
H          7.89000        8.67500       16.39700
H          9.09800        7.80200       15.81300
H          9.35300        8.80800       17.03300
B          2.33700       12.54800       17.43800
F          3.36500       12.79400       16.54000
F          1.41300       13.59800       17.37500
F          2.80500       12.42900       18.70600
F          1.70000       11.36300       17.06300
