54
C:\Users\Javier\OneDrive - Universitat de Barcelona\Tesi\4 - Contribucions\Treballs\3-PhD\chapter_1\cif\pc2p\HARNOD.pc2p.pdb
Ta         4.64300        6.37400        8.74200
Ta        -0.40100        3.85400       -1.12300
Pd         7.01500        6.48700        7.20500
Pd         1.99400        3.89800        0.38400
P          8.36700        5.07400        6.06400
P          8.55400        8.08800        6.74000
P          3.70600        2.46500        0.82300
P          3.17600        5.40500        1.58900
C          3.49100        6.72700        6.63700
C          2.98700        5.52300        7.22900
C          2.34600        5.93700        8.45900
C          2.40000        7.28100        8.61100
C          3.16100        7.80800        7.47200
C          4.40700        5.11400       10.76700
C          3.97800        6.41400       11.07100
C          5.13600        7.26100       10.91900
C          6.25100        6.47200       10.61500
C          5.78500        5.17200       10.54000
C          5.86800        8.02900        8.20100
C          5.75200        4.87400        7.66900
C          8.87700        3.42800        6.75800
C          7.84700        4.64600        4.37400
C          9.99300        5.88900        5.93800
C          9.81200        7.29800        5.64900
C          8.10400        9.60000        5.86200
C          9.53500        8.65200        8.18600
C         -1.56700        2.01300       -0.04600
C         -2.45100        2.62200       -1.12400
C         -2.63600        3.87800       -0.74400
C         -2.06500        4.15500        0.54700
C         -1.35900        3.04700        0.89600
C         -1.16800        5.19500       -3.02200
C         -0.97000        3.86000       -3.49300
C          0.46100        3.58500       -3.37100
C          0.99100        4.71000       -2.84000
C          0.10300        5.64200       -2.65800
C          1.16600        2.37400       -0.82000
C          0.40600        5.36200        0.15200
C          4.72700        1.90900       -0.62300
C          3.41000        0.91300        1.73100
C          4.92200        3.29800        1.92900
C          4.91500        4.75000        1.71600
C          3.51800        7.06500        0.89600
C          2.57800        5.75400        3.26500
C          5.05200        8.88900        4.23700
C          5.46400        9.90400        3.26500
C          6.38500        9.32000        2.43000
C          6.65000        7.99300        2.85500
C          5.82300        7.75500        3.94900
C          1.20500       -0.03900        4.23700
C          2.01700        0.72300        5.11800
C          1.72200        2.06200        4.87500
C          0.75200        2.19100        3.84200
C          0.42400        0.86800        3.47800
