43
C:\Users\Javier\OneDrive - Universitat de Barcelona\Tesi\4 - Contribucions\Treballs\3-PhD\chapter_1\cif\pc2p\HASWED.pc2p.pdb
Sb         4.77300       10.98300        3.47900
F          2.99600       11.44200        3.18100
F          6.52100       10.47900        3.75800
F          5.29700       12.50900        2.75300
F          4.24200        9.44800        4.21400
F          4.79300       10.22200        1.83500
F          4.75300       11.76400        5.13400
Pd         6.74100        8.78900       12.27600
P          4.57100        8.44100       11.72900
P          7.12000        6.56400       11.51000
N          8.71600        9.30200       12.99500
C          7.34200       11.11900       13.87600
C          6.43500       10.69800       12.88600
C          5.50000       11.65300       12.47000
C          5.44400       12.94000       13.01800
C          6.30800       13.28600       14.04000
C          7.24500       12.39500       14.42400
C          8.43000       10.14500       14.24700
C          7.99900        9.31300       15.42100
C          9.63400        8.22600       13.31300
C          9.36000       10.19100       12.03000
C          3.10600        8.96100       12.70300
C          2.26200        9.86400       11.73400
C          2.52200        9.38700       10.31700
C          4.04100        9.24500       10.12500
C          3.23200        9.53200       14.09400
C          3.96400        8.58600       15.03500
C          1.83700        9.89200       14.69800
C          4.55600        8.64000        8.83400
C          4.92200        9.73900        7.84800
C          3.61500        7.64700        8.17200
C          7.66900        5.19900       12.64700
C          8.28400        4.17600       11.72900
C          9.17000        4.95600       10.69000
C          8.32500        6.11400       10.13800
C          6.61700        4.68200       13.63500
C          6.25200        5.75200       14.61200
C          7.09300        3.43200       14.36300
C          9.10500        7.20900        9.46800
C          8.14900        8.18300        8.76800
C         10.14400        6.64600        8.49300
C          4.34400        6.62600       11.58400
C          5.48700        5.98400       10.85900
