105
C:\Users\Javier\OneDrive - Universitat de Barcelona\Tesi\4 - Contribucions\Treballs\3-PhD\chapter_1\cif\pc2p\HEDXIA.pc2p.pdb
Rh         3.14200        6.97600        3.08900
B         -0.10300        4.35100        2.53400
O          1.25000        4.01000        3.09100
O          0.14900        5.58700        1.75200
C          2.14100        4.82100        2.49900
C          1.47700        5.76600        1.69100
C          2.19000        6.67300        0.91600
H          1.75200        7.32600        0.38300
C          3.60900        6.57200        0.96000
H          4.12900        7.18900        0.45900
C          4.26600        5.58900        1.72000
H          5.21300        5.52100        1.68400
C          3.53900        4.70800        2.52700
H          3.97200        4.06000        3.07000
O         -1.10700        4.52500        3.57700
O         -0.61100        3.26900        1.65700
C         -2.02800        3.52800        3.41000
C         -1.72900        2.77800        2.27300
C         -2.49400        1.69900        1.90600
H         -2.29700        1.19200        1.12700
C         -3.57500        1.38000        2.73000
H         -4.11900        0.63200        2.51000
C         -3.87500        2.11900        3.85000
H         -4.62000        1.87500        4.38600
C         -3.10100        3.22500        4.21300
H         -3.30700        3.74400        4.98200
P          4.21100        8.89700        3.22900
C          5.67300        9.09000        2.15200
C          5.74600       10.05200        1.15200
H          5.02500       10.65700        1.02500
C          6.86700       10.13300        0.33500
H          6.90400       10.78800       -0.35200
C          7.92500        9.27300        0.51400
H          8.69400        9.34200       -0.03900
C          7.86400        8.31000        1.50200
H          8.59400        7.71600        1.63000
C          6.73900        8.20800        2.31100
H          6.69700        7.53100        2.97700
C          3.24500       10.40300        2.87100
C          3.53100       11.64000        3.46300
H          4.22800       11.70900        4.10400
C          2.80000       12.76100        3.11300
H          2.99300       13.59500        3.52500
C          1.79400       12.68200        2.17300
H          1.30100       13.45800        1.93300
C          1.50900       11.47100        1.58500
H          0.82000       11.41600        0.93300
C          2.21500       10.33200        1.93000
H          1.99800        9.49900        1.52600
C          4.82000        9.11800        4.94300
H          5.55900        8.48800        5.13400
H          5.14500       10.04200        5.08200
C          3.62300        8.82800        5.84300
H          2.99000        9.58900        5.81500
H          3.92600        8.71100        6.77800
P          2.78100        7.29500        5.26400
C          3.48200        5.92100        6.24700
C          2.95300        4.64600        6.06500
H          2.21500        4.52000        5.48000
C          3.49500        3.56000        6.72700
H          3.12000        2.69700        6.60400
C          4.57400        3.72600        7.56800
H          4.94800        2.97400        8.01300
C          5.10800        4.96600        7.76100
H          5.85000        5.07900        8.34500
C          4.56700        6.06800        7.10600
H          4.94200        6.93000        7.24600
C          1.09500        7.49200        5.95100
C          0.02200        6.86800        5.32800
H          0.16900        6.32500        4.56300
C         -1.26300        7.03400        5.82100
H         -1.98700        6.57300        5.41300
C         -1.49800        7.86500        6.89700
H         -2.38600        8.00500        7.20400
C         -0.44100        8.49100        7.52400
H         -0.59900        9.06000        8.26700
C          0.85600        8.29100        7.06800
H          1.58300        8.69900        7.52100
B          6.62000       12.00600        6.95800
O          6.33000       11.17600        8.11300
O          5.33700       12.49500        6.45600
C          4.96800       11.18400        8.26400
C          4.39300       11.97100        7.29500
C          3.03100       12.14700        7.22700
H          2.63700       12.68800        6.55300
C          2.25200       11.50200        8.18500
H          1.30800       11.60300        8.16500
C          2.82400       10.72900        9.14700
H          2.26800       10.30400        9.79100
C          4.20600       10.54400        9.21600
H          4.60300       10.00300        9.88800
O          7.29100       11.19700        5.90900
O          7.49300       13.15600        7.34000
C          8.38900       11.54700        5.31400
C          8.85800       10.61800        4.26100
H          8.86100        9.70200        4.61200
H          9.76500       10.86600        3.98700
H          8.25700       10.67000        3.48900
C          9.05700       12.69500        5.67100
H          9.84800       12.95000        5.21100
C          8.57500       13.47300        6.70000
C          9.24900       14.70900        7.17300
H          8.57900       15.40600        7.33100
H          9.88500       15.01400        6.49300
H          9.72800       14.52100        8.00700
