70
C:\Users\Javier\OneDrive - Universitat de Barcelona\Tesi\4 - Contribucions\Treballs\3-PhD\chapter_1\cif\pc2p\HEGZUO.pc2p.pdb
Pd        -1.23200       -3.01900       -2.89500
P         -0.03300       -4.91300       -3.00900
P         -1.67100       -3.33900       -5.08200
C         -0.72600       -2.17100       -0.87800
C         -0.54900       -1.10400       -1.78800
C         -1.81700       -0.88300       -2.28600
C         -2.68800       -1.69700       -1.66300
C         -2.09100       -2.45500       -0.80100
C          0.26100       -5.25400       -4.78300
C         -1.03200       -4.99300       -5.55400
C          1.62400       -4.80400       -2.27100
C          2.35600       -3.67000       -2.53900
C          3.67400       -3.54700       -2.05600
C          4.20000       -4.53000       -1.31100
C          3.47100       -5.62100       -0.98200
C          2.16200       -5.78400       -1.49400
C         -0.82600       -6.39400       -2.36400
C         -0.39000       -7.65800       -2.70900
C         -1.03800       -8.84500       -2.23300
C         -2.13500       -8.64900       -1.41600
C         -2.57000       -7.40200       -1.01000
C         -1.89900       -6.28700       -1.48100
C         -0.77100       -2.17800       -6.15800
C         -1.15000       -1.96500       -7.47100
C         -0.38900       -1.15000       -8.30500
C          0.70500       -0.50600       -7.79900
C          1.10000       -0.70400       -6.49700
C          0.36500       -1.52700       -5.67400
C         -3.39000       -3.27300       -5.65500
C         -4.26100       -2.36100       -5.10500
C         -5.56600       -2.25600       -5.55700
C         -6.01300       -3.07700       -6.58400
C         -5.13200       -3.98800       -7.16800
C         -3.82700       -4.08700       -6.70100
H         -0.01800       -2.60600       -0.39800
H          0.25700       -0.63900       -2.02300
H         -2.05200       -0.24600       -2.96500
H         -3.63200       -1.70600       -1.83400
H         -2.50500       -3.10300       -0.22600
H          0.54900       -6.16300       -4.90000
H          0.94600       -4.66600       -5.11300
H         -0.87300       -5.02700       -6.50000
H         -1.67500       -5.66700       -5.32200
H          1.96600       -2.97300       -3.07100
H          4.18600       -2.76000       -2.25600
H          5.11000       -4.46900       -1.01100
H          3.83300       -6.28300       -0.38900
H          1.65800       -6.57600       -1.29600
H          0.36400       -7.73000       -3.29900
H         -0.72400       -9.72300       -2.46500
H         -2.63900       -9.41100       -1.12000
H         -3.30900       -7.30500       -0.40500
H         -2.18700       -5.41500       -1.20000
H         -1.95200       -2.37500       -7.80400
H         -0.62700       -1.04100       -9.22900
H          1.20000        0.10000       -8.35400
H          1.89500       -0.27800       -6.16800
H          0.63100       -1.65200       -4.76000
H         -3.95400       -1.78200       -4.40300
H         -6.17000       -1.63300       -5.14500
H         -6.91700       -3.00300       -6.90100
H         -5.43900       -4.54900       -7.88400
H         -3.22200       -4.71500       -7.10200
P          1.25900       -4.99900       -9.74700
F          2.25200       -6.08200       -9.29100
F          1.27400       -4.76400       -8.24000
F          0.16800       -4.12800      -10.12600
F          2.40200       -4.10700       -9.87700
F          0.25300       -6.05900       -9.54400
F          1.32500       -5.39100      -11.17800
