96
C:\Users\Javier\OneDrive - Universitat de Barcelona\Tesi\4 - Contribucions\Treballs\3-PhD\chapter_1\cif\pc2p\HEQHUG.pc2p.pdb
Pd         0.48300        0.45400        3.97900
S          0.93200        2.76700        3.85100
P          0.16300       -1.77800        3.94900
P          2.51300       -0.04700        5.04700
C         -1.22600        0.59800        2.87300
C         -1.11100        0.69700        1.48200
C         -2.24000        0.73400        0.66700
C         -3.49800        0.69700        1.20800
C         -3.63300        0.60900        2.56500
C         -2.51500        0.53200        3.39700
C         -0.51200       -2.53800        2.45000
C          0.31700       -2.99500        1.45000
C         -0.19300       -3.41100        0.23600
C         -1.53900       -3.34300        0.01300
C         -2.38800       -2.93100        1.00400
C         -1.88300       -2.55000        2.22300
C         -0.87400       -2.41600        5.30200
C         -1.28500       -1.56700        6.33400
C         -2.03200       -2.07300        7.38000
C         -2.37300       -3.41500        7.41400
C         -1.97800       -4.24600        6.40600
C         -1.23400       -3.76700        5.34800
C          1.80900       -2.57200        4.24600
C          2.50000       -1.86000        5.38700
C          3.05000        0.70700        6.62200
C          2.71400        2.02100        6.89000
C          3.09900        2.62100        8.08500
C          3.82000        1.91400        9.03200
C          4.15200        0.60100        8.78100
C          3.77800        0.00400        7.57800
C          3.92500        0.18500        3.91500
C          5.19400       -0.29600        4.25500
C          6.26200       -0.14200        3.37400
C          6.07100        0.52000        2.16800
C          4.81400        1.00900        1.85300
C          3.74600        0.82200        2.70100
C         -0.49000        3.77300        3.62900
C         -1.69900        3.47800        4.26100
C         -2.85000        4.25200        4.08700
C         -2.78000        5.40400        3.28900
C         -1.57100        5.71900        2.69600
C         -0.43800        4.91200        2.84500
C         -4.15000        3.82000        4.72200
C         -3.98700        6.28100        3.07200
O         10.72700       -2.62300        0.80300
O          8.19300       -4.12900        1.60300
C         10.17400       -3.86000        0.36100
C          9.41600       -4.79600        1.30100
C          8.42500       -2.72600        1.52200
C          9.68800       -1.87000        1.42000
H         -0.24700        0.74000        1.08700
H         -2.13500        0.78700       -0.27600
H         -4.26500        0.73200        0.64800
H         -4.50300        0.60000        2.94700
H         -2.63400        0.43300        4.33500
H          1.25600       -3.02700        1.59700
H          0.38700       -3.74200       -0.43900
H         -1.88900       -3.58400       -0.83700
H         -3.32600       -2.90900        0.85100
H         -2.47800       -2.29100        2.91900
H         -1.05200       -0.64600        6.31600
H         -2.31400       -1.49800        8.08100
H         -2.88200       -3.75900        8.13800
H         -2.21900       -5.16500        6.43300
H         -0.96700       -4.35500        4.65000
H          1.68700       -3.52700        4.47100
H          2.36300       -2.51300        3.42900
H          3.42900       -2.19200        5.47600
H          2.02200       -2.04100        6.23400
H          2.21500        2.52000        6.25300
H          2.86400        3.52600        8.25300
H          4.08200        2.33000        9.84500
H          4.63700        0.10200        9.42700
H          4.02400       -0.89800        7.41000
H          5.32700       -0.73000        5.08900
H          7.11800       -0.49000        3.59700
H          6.79600        0.63700        1.56500
H          4.68700        1.48000        1.03800
H          2.88400        1.13300        2.45200
H         -1.74100        2.72000        4.83400
H         -1.50600        6.50800        2.17000
H          0.37100        5.14800        2.40400
H         -4.85000        4.47000        4.50700
H         -4.03700        3.77300        5.69600
H         -4.40300        2.93900        4.38000
H         -4.75100        5.91400        3.56300
H         -4.19900        6.31300        2.11500
H         -3.79600        7.18600        3.39300
H         10.92200       -4.38300       -0.02300
H          9.56300       -3.64700       -0.38800
H          9.23800       -5.66400        0.85800
H          9.93700       -4.96000        2.12700
H          7.95700       -2.36200        2.31400
H          7.88400       -2.44200        0.74300
H          9.50000       -1.05800        0.88500
H          9.97300       -1.58400        2.32500
