87
C:\Users\Javier\OneDrive - Universitat de Barcelona\Tesi\4 - Contribucions\Treballs\3-PhD\chapter_1\cif\pc2p\HEQHOA.pc2p.pdb
Pd        10.82800       -0.90300        1.96300
S         10.54600       -3.24900        2.15500
P         11.11300        1.32600        1.76600
P         10.75100       -0.47600        4.28300
N          8.11200       -0.43900       -2.61600
C         12.90100        1.73800        1.72000
C         13.83200        0.74200        1.87900
C         15.17600        1.06500        1.88300
C         15.59000        2.36900        1.75700
C         14.65400        3.35300        1.60100
C         13.31600        3.06300        1.59500
C         10.34200        2.24700        0.39900
C         11.06500        2.52700       -0.73500
C         10.43700        3.14200       -1.82500
C          9.11800        3.47500       -1.75500
C          8.38500        3.18600       -0.63600
C          9.02100        2.58900        0.45300
C         10.52400        2.11600        3.30400
C         11.04400        1.30900        4.47800
C          9.13200       -0.78100        5.05100
C          8.58400        0.02600        6.03800
C          7.31900       -0.21300        6.53300
C          6.57600       -1.28600        6.06400
C          7.11200       -2.12300        5.11800
C          8.38400       -1.86700        4.61000
C         11.99000       -1.16100        5.44600
C         12.18200       -0.61700        6.68900
C         13.18200       -1.08900        7.52400
C         14.00400       -2.12500        7.09700
C         13.80600       -2.67700        5.86600
C         12.80600       -2.18100        5.01600
C         10.78300       -0.85900       -0.08900
C         11.90300       -0.79400       -0.90300
C         11.77400       -0.69800       -2.28200
C         10.51500       -0.57900       -2.86400
C          9.39600       -0.56600       -2.05900
C          9.54500       -0.71500       -0.69000
C         11.15500       -4.33900        0.77500
C         12.65900       -4.19200        0.67000
C         10.53700       -4.07200       -0.60300
C         10.75600       -5.75300        1.20600
C          3.35600        2.44000        6.42200
C          2.16300        1.84700        5.57600
C          2.42100        0.46500        6.27000
C          3.01500        0.13900        7.57200
C          3.96200        0.99900        8.26600
C          3.92000        2.27700        7.42000
C          4.83000        2.78900        8.37400
H         13.55600       -0.16000        1.98300
H         15.82300        0.37500        1.97600
H         16.51600        2.58400        1.77500
H         14.93700        4.25400        1.49900
H         12.67500        3.75800        1.50400
H         11.98800        2.30400       -0.77900
H         10.93200        3.32700       -2.61400
H          8.70200        3.91200       -2.48800
H          7.45800        3.38900       -0.60300
H          8.52700        2.41800        1.24700
H         10.85300        3.00600        3.35400
H          9.57500        2.12700        3.31700
H         10.60700        1.60600        5.26800
H         11.98000        1.45800        4.55800
H          9.09000        0.75400        6.38100
H          6.95600        0.36000        7.19600
H          5.69900       -1.44100        6.39600
H          6.61700       -2.87300        4.81200
H          8.74700       -2.44600        3.94900
H         11.62200        0.09200        6.98200
H         13.30400       -0.70600        8.38500
H         14.70100       -2.44600        7.65900
H         14.35000       -3.40200        5.58200
H         12.69100       -2.55000        4.14800
H         12.76800       -0.81400       -0.51400
H         12.54900       -0.71300       -2.83300
H         10.42900       -0.50700       -3.80800
H          7.34600       -0.45700       -2.05500
H          8.00900       -0.33700       -3.55600
H          8.76800       -0.71900       -0.14300
H         13.05100       -4.35500        1.52100
H         12.99600       -4.82000        0.04100
H         12.87400       -3.31300        0.38600
H         10.80800       -3.21500       -0.91100
H         10.83000       -4.73600       -1.21500
H          9.59000       -4.09900       -0.53600
H          9.81100       -5.81300        1.25400
H         11.08300       -6.38000        0.57100
H         11.13000       -5.94000        2.05900
