134
C:\Users\Javier\OneDrive - Universitat de Barcelona\Tesi\4 - Contribucions\Treballs\3-PhD\chapter_1\cif\pc2p\HERBEM.pc2p.pdb
Pd        34.28400       14.11400        7.61900
S         36.38100       13.58700        6.85400
S         33.37400       12.82200        5.93300
S         35.76200       10.93500        2.85800
P         35.17400       15.25300        9.37200
P         32.32000       15.08300        8.24400
C         36.03600       12.58100        5.48100
H         36.75800       12.23600        5.00300
C         34.80000       12.26800        5.06600
C         34.56600       11.49400        3.82600
C         32.92000       11.29200        3.17000
C         33.48700       10.52200        1.92200
H         32.96000        9.73900        1.65800
C         34.77400       10.42100        1.67600
H         35.05900       10.58100        0.75300
C         33.96800       16.50600        9.90400
H         34.17400       16.80000       10.80400
H         34.00900       17.27500        9.31500
C         32.57700       15.90200        9.86400
H         31.91000       16.59600        9.99000
H         32.48000       15.25400       10.57800
C         36.74400       16.10700        9.14800
C         36.80900       17.33900        8.50400
H         36.02800       17.75100        8.20900
C         38.04800       17.95800        8.29800
H         38.08700       18.78100        7.86700
C         39.19600       17.36300        8.72200
H         40.01700       17.78500        8.58400
C         39.15400       16.13900        9.35400
H         39.94200       15.73700        9.64500
C         37.93800       15.50800        9.55600
H         37.91300       14.67500        9.97000
C         35.44300       14.21100       10.82000
C         35.77200       14.76600       12.06200
H         35.79900       15.69000       12.15900
C         36.05800       13.95600       13.14400
H         36.28300       14.33500       13.96300
C         36.00800       12.58400       13.00800
H         36.18300       12.04500       13.74300
C         35.69800       11.99700       11.78700
H         35.67900       11.07200       11.70100
C         35.41500       12.81800       10.69300
H         35.20400       12.43500        9.87000
C         30.74600       14.20200        8.38700
C         30.08200       14.04200        9.58500
H         30.46100       14.33900       10.38000
C         28.83800       13.43100        9.58700
H         28.37200       13.34000       10.38700
C         28.28300       12.95700        8.42300
H         27.45700       12.53200        8.43900
C         28.94900       13.10900        7.24100
H         28.57200       12.79300        6.45200
C         30.18000       13.73000        7.21500
H         30.63100       13.83000        6.40800
C         31.89500       16.40700        7.06600
C         30.80600       17.24900        7.29100
H         30.31600       17.17400        8.07800
C         30.45500       18.19500        6.35000
H         29.72100       18.74400        6.49700
C         31.18600       18.32900        5.19400
H         30.94600       18.96800        4.56400
C         32.26700       17.52500        4.96900
H         32.76000       17.62600        4.18900
C         32.63300       16.55600        5.89400
H         33.37000       16.01000        5.73200
Pd        29.21200        6.87300        7.06600
S         29.78300        5.65600        8.94100
S         27.50300        5.38400        6.69500
S         27.72300        2.02000       10.23100
P         30.98600        8.32100        7.12200
P         28.57300        8.05800        5.23600
C         27.68100        4.26300        7.99000
H         27.06800        3.56700        8.04200
C         28.63600        4.31400        8.92800
C         28.82600        3.29200        9.94800
C         29.87800        3.15300       10.82400
H         30.58600        3.75400       10.85400
C         29.80100        2.04000       11.66100
H         30.45600        1.81100       12.27600
C         28.71200        1.36700       11.49200
H         28.48700        0.61600       11.99100
C         30.01900        9.03500        4.68700
H         30.66600        8.46100        4.25000
H         29.74100        9.72000        4.05900
C         30.63600        9.67700        5.93200
H         30.02100       10.31600        6.32300
H         31.45600       10.14200        5.70100
C         32.52900        7.59100        6.51500
C         32.67600        6.19300        6.51000
H         31.96500        5.64300        6.74700
C         33.90300        5.64500        6.14900
H         34.01400        4.72100        6.15700
C         34.95100        6.44400        5.78300
H         35.76900        6.06200        5.55400
C         34.79700        7.82300        5.75400
H         35.50400        8.36400        5.47900
C         33.60100        8.39100        6.13300
H         33.51000        9.31700        6.13300
C         31.57100        9.15200        8.63600
C         31.93700        8.34800        9.71900
H         31.80000        7.42900        9.67700
C         32.50000        8.90700       10.85800
H         32.74500        8.36700       11.57300
C         32.69100       10.28100       10.91800
H         33.07000       10.66700       11.67500
C         32.32000       11.07000        9.84700
H         32.45000       11.99100        9.89300
C         31.76000       10.52200        8.70800
H         31.51500       11.06900        7.99700
C         27.27300        9.28100        5.57500
C         27.25400       10.51000        4.97200
H         27.92200       10.73900        4.37000
C         26.24500       11.41400        5.25600
H         26.25300       12.25900        4.86700
C         25.24000       11.05700        6.10600
H         24.55400       11.65700        6.29500
C         25.23700        9.81600        6.68200
H         24.54900        9.57200        7.25700
C         26.25000        8.93000        6.41500
H         26.24300        8.08800        6.80800
C         28.02300        7.11800        3.79000
C         28.86000        6.14300        3.34800
H         29.64100        5.97700        3.82300
C         28.60200        5.39800        2.23400
H         29.12200        4.66700        1.99800
C         27.56200        5.77500        1.51200
H         27.41700        5.33400        0.70800
C         26.70300        6.74400        1.84700
H         25.94800        6.91900        1.33400
C         26.99000        7.49700        3.02800
H         26.47300        8.23400        3.26100
O         25.28800       12.23800       10.78200
S         33.21700       11.00600        3.30600
C         35.59900       11.10100        2.80100
