70
C:\Users\Javier\OneDrive - Universitat de Barcelona\Tesi\4 - Contribucions\Treballs\3-PhD\chapter_1\cif\pc2p\HERBAI.pc2p.pdb
Pd         6.37100        3.10400        7.16100
N          8.10400       -2.11200       -1.10900
P          6.50500        3.93600        9.28000
P          4.53500        4.44500        6.91700
S          8.19000        1.73900        7.42500
S          6.14900        2.28200        5.02700
C          8.32400        0.95500        5.89400
H          9.03200        0.36500        5.77100
C          7.48400        1.13300        4.87800
C          7.65900        0.41600        3.58900
C          8.50300       -0.67100        3.43900
H          8.97700       -0.97500        4.17800
C          8.66300       -1.32000        2.23900
H          9.24200       -2.04600        2.17800
C          7.96500       -0.90000        1.11300
C          7.12400        0.19700        1.24100
H          6.67000        0.51100        0.49300
C          6.94600        0.83100        2.45200
H          6.34800        1.53900        2.51700
C          8.10300       -1.58700       -0.14900
C          4.90200        4.73200        9.63400
H          4.25000        4.05700        9.87600
H          5.00000        5.34000       10.38300
C          4.41600        5.49600        8.41900
H          4.95300        6.29500        8.30000
H          3.49500        5.76800        8.55200
C          2.95800        3.54800        6.83700
C          2.93900        2.14700        6.85600
H          3.73700        1.67100        6.89200
C          1.74000        1.47200        6.82100
H          1.73600        0.54300        6.83700
C          0.56300        2.14500        6.76400
H         -0.23900        1.67500        6.73700
C          0.55400        3.53400        6.74500
H         -0.25300        3.99400        6.69000
C          1.76000        4.24100        6.81100
H          1.75800        5.17000        6.83600
C          4.45300        5.66000        5.56200
C          3.62400        5.48400        4.45500
H          3.13700        4.69700        4.36300
C          3.52300        6.47300        3.49800
H          2.96500        6.35200        2.76400
C          4.24700        7.63100        3.62500
H          4.16200        8.30200        2.98500
C          5.09200        7.80700        4.68300
H          5.59800        8.58400        4.75000
C          5.19700        6.82600        5.65100
H          5.77200        6.95000        6.37200
C          6.70000        2.86700       10.73900
C          6.83300        3.45500       11.99000
H          6.94000        4.37700       12.05600
C          6.80900        2.69000       13.13300
H          6.89400        3.09000       13.96600
C          6.65900        1.33000       13.03200
H          6.61800        0.81100       13.80400
C          6.57000        0.73000       11.80400
H          6.50300       -0.19700       11.74700
C          6.57800        1.48600       10.65500
H          6.50200        1.07400        9.82400
C          7.80800        5.18000        9.51900
C          9.12000        4.83300        9.17100
H          9.28800        4.00800        8.77600
C         10.16100        5.70100        9.40800
H         11.03000        5.45600        9.18200
C          9.92300        6.92700        9.97400
H         10.63000        7.50500       10.15000
C          8.64500        7.30000       10.28100
H          8.48400        8.14200       10.63800
C          7.58300        6.43100       10.06400
H          6.71800        6.69200       10.28400
