89
C:\Users\Javier\OneDrive - Universitat de Barcelona\Tesi\4 - Contribucions\Treballs\3-PhD\chapter_1\cif\pc2p\HICQOA.pc2p.pdb
Te         0.39900        3.92500        6.58700
Te        -2.19400        3.64000        4.00200
Pd        -2.17200        3.64200        6.63400
P         -4.44100        3.64600        6.49000
P         -2.49900        3.43000        8.87900
C         -5.13600        3.21800        8.14600
H         -6.06800        3.54400        8.22100
H         -5.13500        2.23700        8.27200
C         -4.26000        3.88400        9.19700
H         -4.52800        3.58300       10.10300
H         -4.36800        4.86900        9.15500
C          1.24600        3.66100        8.53900
C          1.70900        4.76300        9.25100
H          1.56700        5.63600        8.90800
C          2.37400        4.60200       10.45600
H          2.65900        5.36300       10.94600
C          2.62200        3.33000       10.94100
H          3.07800        3.22000       11.76800
C          2.20600        2.22400       10.22900
H          2.38900        1.35200       10.55600
C          1.51700        2.38800        9.02200
H          1.23200        1.62500        8.53200
C         -0.53600        4.84000        3.40700
C         -0.63700        6.22700        3.48800
H         -1.42800        6.62100        3.83600
C          0.40200        7.04000        3.06300
H          0.32300        7.98400        3.12900
C          1.55500        6.47600        2.55000
H          2.27500        7.02900        2.26900
C          1.65000        5.11400        2.44500
H          2.42700        4.72100        2.06600
C          0.60000        4.30000        2.89800
H          0.68700        3.35600        2.84600
C         -5.30400        2.50800        5.35400
C         -5.32800        1.15000        5.68800
H         -4.91400        0.84900        6.48900
C         -5.95700        0.24400        4.85000
H         -5.97800       -0.67600        5.08300
C         -6.55000        0.66500        3.68900
H         -7.00600        0.04200        3.13300
C         -6.48200        2.00700        3.32300
H         -6.87100        2.29600        2.50500
C         -5.85100        2.92300        4.14700
H         -5.79200        3.83500        3.88500
C         -5.06900        5.32500        6.26000
C         -6.42400        5.59100        6.08900
H         -7.02500        4.86700        5.96800
C         -6.91600        6.88100        6.09400
H         -7.84500        7.03800        5.97300
C         -6.04000        7.94900        6.28100
H         -6.37300        8.83800        6.30400
C         -4.67600        7.70800        6.43700
H         -4.07600        8.43700        6.55200
C         -4.18800        6.40200        6.42300
H         -3.25600        6.24200        6.52400
C         -2.42000        1.68800        9.37400
C         -1.77100        0.79600        8.52900
H         -1.30200        1.12900        7.77300
C         -1.79500       -0.58300        8.77400
H         -1.34100       -1.18300        8.19500
C         -2.48400       -1.05700        9.86500
H         -2.55500       -1.99100       10.01400
C         -3.07100       -0.17000       10.73800
H         -3.48800       -0.50300       11.52500
C         -3.07100        1.18300       10.50200
H         -3.51000        1.77400       11.10200
C         -1.63100        4.41900       10.11200
C         -1.49600        5.78600        9.87400
H         -1.81000        6.15700        9.05900
C         -0.90300        6.61400       10.83100
H         -0.81000        7.54600       10.66300
C         -0.45300        6.07300       12.01800
H         -0.06800        6.63800       12.67600
C         -0.55700        4.71900       12.25300
H         -0.22400        4.34900       13.06100
C         -1.15400        3.90400       11.30100
H         -1.23600        2.97200       11.47100
O          4.38900        7.42000       12.40300
H          4.14700        8.22800       12.31200
C          5.25100        7.14100       11.46700
H          4.86500        7.36100       10.59300
H          5.47000        6.18700       11.49700
H          6.06600        7.66800       11.60400
O          4.95800        7.66400       10.00700
H          4.67400        7.48300        9.23700
C          3.99700        8.10100       10.69100
H          3.67100        7.39300       11.28700
H          3.27300        8.38400       10.09400
H          4.29700        8.86600       11.22600
