118
C:\Users\Javier\OneDrive - Universitat de Barcelona\Tesi\4 - Contribucions\Treballs\3-PhD\chapter_1\cif\pc2p\HIRWOU.pc2p.pdb
Pd         1.84500        6.61400        3.51500
S          1.08100        8.10700        5.08400
S          3.17200        8.26900        2.61700
P          0.57200        5.01600        4.46800
P          2.29800        5.02500        1.95500
N          1.93500       11.97500        4.94200
C          1.91400        9.58100        4.64500
C          1.67200       10.73200        5.46400
C          1.15800       10.70000        6.75800
H          0.97200        9.86900        7.15900
C          0.91800       11.84300        7.45400
H          0.55900       11.79500        8.32200
C          1.19600       13.06400        6.89500
H          1.03800       13.85600        7.37400
C          1.70200       13.10600        5.63900
H          1.89600       13.93700        5.24800
C          2.41300       12.06100        3.55000
H          2.83500       12.93400        3.40200
H          1.65200       11.98400        2.93800
C          3.41300       10.95800        3.26000
H          3.68000       10.98900        2.31700
H          4.21400       11.07800        3.81100
C          2.76500        9.62800        3.56900
C          0.33800        3.64400        3.28100
H          0.06400        2.83100        3.75200
H         -0.35600        3.87400        2.62800
C          1.67100        3.42500        2.57900
H          1.55400        2.80100        1.83300
H          2.31600        3.03700        3.20500
C         -1.98700        5.86900        4.00900
H         -1.80200        5.67600        3.10900
C         -3.20600        6.45400        4.38600
H         -3.86000        6.62300        3.73200
C         -3.45600        6.77800        5.67600
H         -4.27300        7.17800        5.90900
C         -2.54000        6.53100        6.62000
H         -2.71200        6.78000        7.51000
C         -1.33000        5.90700        6.29700
H         -0.70300        5.70900        6.96800
C         -1.07400        5.58900        4.99500
C          2.66400        4.69100        6.26700
H          3.08800        5.37700        5.78000
C          3.31800        4.12600        7.34000
H          4.18500        4.41200        7.56300
C          2.71700        3.15800        8.07400
H          3.14600        2.79700        8.82900
C          1.45500        2.70400        7.69700
H          1.04800        2.01100        8.18300
C          0.79500        3.25800        6.61900
H         -0.06000        2.94800        6.38200
C          1.38900        4.27300        5.88500
C          1.18300        4.36000       -0.52500
H          1.46100        3.48100       -0.34500
C          0.57100        4.63500       -1.71200
H          0.44700        3.95200       -2.34700
C          0.13600        5.90800       -1.98400
H         -0.29600        6.09700       -2.79700
C          0.33400        6.89400       -1.06900
H          0.04800        7.76900       -1.25900
C          0.94700        6.62300        0.13100
H          1.05700        7.31200        0.76200
C          1.40200        5.34900        0.41600
C          4.59900        5.60300        0.57000
H          4.14100        6.38200        0.31000
C          5.90200        5.37200        0.09800
H          6.31100        5.99300       -0.47700
C          6.56800        4.25600        0.47200
H          7.43400        4.09400        0.14400
C          5.99000        3.36900        1.32100
H          6.46500        2.60700        1.59900
C          4.70800        3.58100        1.77800
H          4.31300        2.95200        2.35500
C          3.99100        4.70800        1.40400
C          0.32300        3.38400       -4.96300
H         -0.48200        3.26900       -4.49400
C          0.63300        4.65100       -5.45900
H          0.03900        5.36300       -5.31000
C          1.78400        4.87300       -6.15500
H          1.98700        5.72600       -6.49300
C          2.64400        3.80700       -6.35200
H          3.44700        3.92800       -6.82400
C          2.31200        2.56200       -5.85000
H          2.91000        1.85200       -6.00200
C          1.15600        2.28800       -5.13600
C          1.22500       -0.03900       -1.90700
H          0.52900       -0.65000       -2.07100
C          1.81800       -0.06800       -0.67800
H          1.52400       -0.68300       -0.03000
C          2.85100        0.80800       -0.38100
H          3.26800        0.79300        0.46200
C          3.24800        1.69100       -1.34200
H          3.95200        2.29100       -1.17200
C          2.60100        1.70100       -2.58700
H          2.87700        2.33700       -3.22000
C          1.57900        0.83200       -2.94100
C         -1.44800        0.99800       -3.13500
H         -0.99700        1.55300       -2.52400
C         -2.77800        0.69500       -2.87800
H         -3.20400        1.02500       -2.10800
C         -3.46500       -0.10200       -3.77000
H         -4.36400       -0.32500       -3.61400
C         -2.82100       -0.56100       -4.88000
H         -3.28100       -1.10100       -5.49700
C         -1.48400       -0.23300       -5.10600
H         -1.07000       -0.55200       -5.88800
C         -0.74000        0.53800       -4.23400
C          1.41800       -0.32900       -6.75500
H          0.92900        0.37100       -7.14700
C          1.96600       -1.29000       -7.59300
H          1.83400       -1.24000       -8.52100
C          2.70100       -2.31400       -7.05800
H          3.08400       -2.96600       -7.61600
C          2.87400       -2.37600       -5.69100
H          3.37900       -3.07300       -5.31300
C          2.30400       -1.41700       -4.87700
H          2.43100       -1.49300       -3.94900
C          1.54900       -0.33800       -5.35100
B          0.87700        0.83200       -4.42500
