92
C:\Users\Javier\OneDrive - Universitat de Barcelona\Tesi\4 - Contribucions\Treballs\3-PhD\chapter_1\cif\pc2p\HIZQAI.pc2p.pdb
C         -7.16500       -4.11900       -3.45000
C         -7.04100       -4.66800       -4.86600
Pd        -8.38300       -2.54600       -5.03400
B         -6.75500       -2.38300       -3.46700
B         -5.67700       -3.68200       -2.82400
B         -5.82500       -5.16300       -3.76400
B         -6.56600       -3.43200       -6.01600
B         -6.18900       -1.95200       -5.10500
B         -4.99600       -2.40000       -3.88200
B         -4.49700       -4.08000       -4.10000
B         -5.47900       -4.73700       -5.43100
B         -4.88200       -3.06000       -5.51500
C         -8.25100       -4.63100       -2.55800
S         -9.69100       -5.23100       -3.20200
C        -10.32500       -5.53300       -1.70400
C         -9.51100       -5.22600       -0.72100
C         -8.16800       -4.69200       -1.06100
P         -9.74600       -2.70200       -6.83000
C         -9.45400       -5.33600       -7.60500
C         -9.87900       -6.63900       -7.84200
C        -11.21000       -6.98300       -7.64400
C        -12.11800       -6.02500       -7.20800
C        -11.69500       -4.72300       -6.97100
C        -10.36300       -4.37900       -7.17000
C         -9.49000       -2.60100       -9.62800
C         -9.03000       -2.04100      -10.81500
C         -8.16100       -0.95700      -10.78000
C         -7.75200       -0.43300       -9.55900
C         -8.21300       -0.99300       -8.37400
C         -9.08200       -2.07700       -8.40900
C        -11.22000       -1.65200       -6.52900
C        -11.62000       -1.73100       -5.06300
P        -10.12800       -1.45800       -4.03400
C        -10.94500        1.17700       -3.67300
C        -10.78700        2.55700       -3.71100
C         -9.58600        3.10800       -4.14200
C         -8.54200        2.27800       -4.53500
C         -8.70100        0.89700       -4.49700
C         -9.90200        0.34700       -4.06700
C         -9.78900       -1.51900       -1.28900
C        -10.19500       -1.68600        0.03000
C        -11.48600       -2.11800        0.31000
C        -12.37100       -2.38400       -0.72800
C        -11.96400       -2.21700       -2.04700
C        -10.67400       -1.78400       -2.32800
O        -14.05700        1.52300       -3.05100
C        -14.78900        1.58800       -2.17600
C        -14.34100        2.00000       -1.12700
C        -16.03400        1.51300       -2.66400
H         -7.65900       -5.41700       -5.11000
H         -7.19900       -1.65700       -2.77000
H         -5.45400       -3.72600       -1.74800
H         -5.65300       -6.16700       -3.34900
H         -6.88800       -3.43300       -7.06900
H         -6.15600       -0.93300       -5.51800
H         -4.28900       -1.65200       -3.49200
H         -3.46500       -4.39600       -3.88900
H         -5.11800       -5.50600       -6.13000
H         -4.10300       -2.76100       -6.23200
H        -11.17500       -5.88500       -1.57000
H         -9.77000       -5.34000        0.16400
H         -7.46500       -4.45800       -0.49800
H         -8.56400       -5.10600       -7.73800
H         -9.27100       -7.28000       -8.13300
H        -11.49500       -7.85400       -7.80200
H        -13.01000       -6.25600       -7.07600
H        -12.30200       -4.08200       -6.67800
H        -10.07300       -3.32700       -9.65300
H         -9.30400       -2.39300      -11.63200
H         -7.85300       -0.58200      -11.57300
H         -7.17200        0.29200       -9.53600
H         -7.94000       -0.64100       -7.55700
H        -11.02000       -0.73200       -6.76400
H        -11.95600       -1.95300       -7.08400
H        -12.00100       -2.60200       -4.87200
H        -12.28700       -1.05500       -4.86600
H        -11.74900        0.80800       -3.38400
H        -11.48500        3.11200       -3.44600
H         -9.48000        4.03100       -4.16800
H         -7.74000        2.64500       -4.82500
H         -8.00300        0.34200       -4.76200
H         -8.92500       -1.23000       -1.47600
H         -9.60400       -1.50900        0.72500
H        -11.75700       -2.23000        1.19200
H        -13.23400       -2.67200       -0.54200
H        -12.55600       -2.39400       -2.74200
H        -13.38600        1.91000       -1.13100
H        -14.70900        1.49200       -0.40100
H        -14.57500        2.92500       -1.02300
H        -16.00800        1.15100       -3.55300
H        -16.42200        2.39000       -2.68800
H        -16.56500        0.94300       -2.10300
