120
C:\Users\Javier\OneDrive - Universitat de Barcelona\Tesi\4 - Contribucions\Treballs\3-PhD\chapter_1\cif\pc2p\HIZTAL.pc2p.pdb
Ru         3.84800       -0.54000       11.17800
C          2.35400       -0.47800        9.95300
O          1.51100       -0.46100        9.19200
C          4.98800       -0.68000        9.70000
O          5.64600       -0.75800        8.76500
C          3.96600        1.54400       11.24100
O          4.91200        2.24700       10.95400
O          2.86900        2.25500       11.75900
C          1.62600        1.70500       12.05000
C          0.49500        2.48700       11.77700
C         -0.74200        1.98000       12.19600
C         -0.88700        0.76100       12.85800
C          0.26700       -0.00800       13.05200
C          1.52200        0.42400       12.64500
C          0.58500        3.86100       11.11500
C         -0.78300        4.54400       10.93700
C          1.45500        4.82600       11.96100
C          1.18800        3.70400        9.70800
C         -2.26600        0.26000       13.38600
C         -2.21600        0.26400       14.90900
C         -2.53700       -1.13900       12.90900
C         -3.38700        1.12400       12.94800
O          2.59500       -0.36100       12.83100
P          5.64100       -0.63400       12.78400
P          3.76900       -2.92200       11.53800
C          2.28600       -3.48400       12.41900
C          1.06900       -3.36600       11.75200
C         -0.10100       -3.79800       12.34800
C         -0.08900       -4.34200       13.61700
C          1.10400       -4.46000       14.27200
C          2.30100       -4.03900       13.69000
C          3.89700       -4.12300       10.17700
C          4.14600       -5.47000       10.45200
C          4.27900       -6.40100        9.43800
C          4.15700       -5.97600        8.12100
C          3.89800       -4.66300        7.81800
C          3.79000       -3.73300        8.84300
C          7.31400       -0.67700       12.04900
C          8.30400       -1.57000       12.47000
C          9.56200       -1.57600       11.89400
C          9.82500       -0.68900       10.85700
C          8.86600        0.20300       10.43300
C          7.61600        0.22100       11.02500
C          5.78700        0.53800       14.18200
C          7.00900        0.73200       14.80700
C          7.11700        1.52400       15.93200
C          5.99300        2.14900       16.44100
C          4.76700        1.96100       15.84900
C          4.66600        1.13000       14.71200
C          5.42100       -2.24000       13.63900
C          5.18800       -3.34700       12.60700
C         -7.29700       -2.77900       10.27000
Cl        -5.91900       -1.69300       10.48900
Cl        -8.59600       -1.99200        9.36500
C         -3.84500        3.06300        8.56900
C         -2.68000        2.34300        7.86500
C         -2.14700        1.01900        8.30600
C         -1.86700       -0.47900        8.16900
C         -1.48900       -1.82400        8.71000
C         -0.49100       -2.76600        8.01100
H         -1.52100        2.49300       12.02200
H          0.19000       -0.85400       13.47800
H         -0.65700        5.41700       10.50900
H         -1.20300        4.66500       11.81300
H         -1.35600        3.98400       10.37400
H          1.52900        5.68800       11.49900
H          2.34700        4.44200       12.08100
H          1.03600        4.96000       12.83600
H          1.27000        4.58500        9.28700
H          0.60400        3.13500        9.16300
H          2.07300        3.29100        9.77600
H         -1.43000       -0.23900       15.21100
H         -3.02800       -0.15300       15.26300
H         -2.15500        1.18800       15.23100
H         -1.79500       -1.72300       13.17100
H         -2.62600       -1.14000       11.93300
H         -3.36800       -1.46700       13.31200
H         -3.41800        1.14800       11.96900
H         -3.25100        2.03200       13.29300
H         -4.22900        0.76500       13.29300
H          1.04300       -2.98700       10.88300
H         -0.92400       -3.72100       11.87700
H         -0.89600       -4.62800       14.02800
H          1.12200       -4.83800       15.14300
H          3.12300       -4.13000       14.16000
H          4.22600       -5.75300       11.35600
H          4.45100       -7.31400        9.63900
H          4.25200       -6.60800        7.41900
H          3.79400       -4.39200        6.91300
H          3.64300       -2.81800        8.63200
H          8.10800       -2.18500       13.16600
H         10.23400       -2.17300       12.20300
H         10.67400       -0.70000       10.43500
H          9.06400        0.80900        9.73000
H          6.96300        0.84600       10.73300
H          7.78600        0.31100       14.45600
H          7.96000        1.63800       16.35600
H          6.06900        2.71200       17.20300
H          3.99400        2.38700       16.20000
H          3.81700        0.97800       14.31100
H          6.22600       -2.44600       14.17700
H          4.64500       -2.18600       14.25400
H          5.01100       -4.20400       13.07100
H          6.00200       -3.45900       12.05200
H         -7.00100       -3.59100        9.78500
H         -7.63600       -3.06100       11.15600
H         -3.66300        4.02400        8.60300
H         -3.94100        2.71500        9.47900
H         -4.67400        2.91000        8.07000
H         -2.94500        2.23700        6.91800
H         -1.91400        2.97100        7.87500
H         -2.58300        0.99100        9.19600
H         -1.22400        1.30900        8.51000
H         -2.70800       -0.74000        7.71600
H         -1.20500       -0.43200        7.43200
H         -2.33200       -2.33400        8.81400
H         -1.13800       -1.67200        9.62300
H         -0.43200       -3.60900        8.50700
H          0.39300       -2.34300        7.98200
H         -0.79500       -2.94600        7.09600
