63
C:\Users\Javier\OneDrive - Universitat de Barcelona\Tesi\4 - Contribucions\Treballs\3-PhD\chapter_1\cif\pc2p\HOHHIV.pc2p.pdb
Ru         4.69700        2.10800        1.79800
Cl         4.92600        1.05900       -0.36400
P          3.39200        3.65900        0.80800
P          6.32200        3.50100        1.14100
F          1.38900        4.36700       -0.88100
F          2.86400        3.00300       -1.69400
F          1.76300        0.96300       -0.37200
F          0.37600        2.01900       -1.48000
F          0.43000        2.23100        0.56200
F          2.77300        4.80600        3.12300
F          1.04100        4.34400        1.90400
F          1.20800        6.86500        2.37300
F          1.83800        6.60200        0.34200
F          3.30400        6.99600        1.84500
F          8.73000        4.16700       -0.27100
F          8.89400        3.01300        1.83200
F          9.82700        1.97800       -0.43500
F          7.98500        0.98600        0.73500
F          7.90000        2.12200       -1.36600
F          5.55100        5.47800        2.66600
F          7.25700        4.47300        3.46600
F          8.84000        5.82700        1.81900
F          7.62100        7.04100        2.91900
F          7.19700        6.73900        0.85200
C          4.53600        2.01600        4.00800
C          3.39200        1.38000        3.48700
C          3.80400        0.28000        2.65700
C          5.19300        0.18400        2.77800
C          5.69400        1.19100        3.60400
C          4.62200        3.05200        5.07900
C          1.90600        1.71500        3.82800
C          2.88600       -0.71400        1.99500
C          5.99900       -0.97900        2.19800
C          7.02900        1.30800        4.17700
C          4.45000        4.84900       -0.19000
C          5.81900        4.35600       -0.38800
C          2.15600        3.27800       -0.59900
C          1.17400        2.10800       -0.45100
C          2.31000        4.84900        1.86300
C          2.15700        6.34700        1.58800
C          8.11100        2.93400        0.72500
C          8.58800        2.23300       -0.18800
C          6.78500        4.92200        2.29300
C          7.59600        6.18700        1.93000
H          4.52300        2.62000        5.93000
H          5.46100        3.51700        5.05200
H          3.90600        3.67800        4.95200
H          1.63400        1.23700        4.61400
H          1.83200        2.65900        3.98600
H          1.34400        1.46900        3.09100
H          2.64900       -1.40700        2.61900
H          2.09100       -0.26600        1.69800
H          3.33700       -1.10200        1.24200
H          6.04800       -1.65200        2.88200
H          5.53900       -1.33300        1.43400
H          6.88700       -0.71500        1.94600
H          7.11200        0.75400        4.95700
H          7.68700        1.04700        3.52900
H          7.16600        2.22600        4.42100
H          4.47800        5.69400        0.26400
H          4.02200        4.98300       -1.04100
H          5.85400        3.76200       -1.14000
H          6.41400        5.09200       -0.54800
