200
C:\Users\Javier\OneDrive - Universitat de Barcelona\Tesi\4 - Contribucions\Treballs\3-PhD\chapter_1\cif\pc2p\HOKSIL.pc2p.pdb
Pd         3.20200      -15.21600        6.89000
Se         4.37300      -13.07900        6.59900
Se         1.63600      -14.28200        8.55000
P          2.96500      -17.44100        7.34300
P          4.28300      -15.90800        5.02600
C          3.44400      -18.39200        5.83200
H          3.69600      -19.31600        6.08400
H          2.67800      -18.44000        5.20900
C          4.62200      -17.70200        5.15000
H          4.75700      -18.08000        4.24600
H          5.44900      -17.85100        5.67500
C          1.54100      -18.39200        7.99100
C          0.51000      -18.78100        7.13900
H          0.50400      -18.48600        6.23600
C         -0.51300      -19.60100        7.61100
H         -1.20900      -19.87200        7.02300
C         -0.52800      -20.02300        8.92400
H         -1.21900      -20.59800        9.23500
C          0.46600      -19.60800        9.77900
H          0.44600      -19.87600       10.69100
C          1.50000      -18.79900        9.32200
H          2.18300      -18.52200        9.92100
C          4.25700      -17.79700        8.57800
C          4.31700      -16.96200        9.70200
H          3.78300      -16.17800        9.73900
C          5.15800      -17.28300       10.76100
H          5.18100      -16.72600       11.53100
C          5.96000      -18.41000       10.70000
H          6.51700      -18.63900       11.43500
C          5.94700      -19.20400        9.55900
H          6.52800      -19.95400        9.49900
C          5.08700      -18.90900        8.50200
H          5.06700      -19.46600        7.73200
C          3.12900      -15.67200        3.63200
C          2.80000      -16.67300        2.72700
H          3.19200      -17.53600        2.80800
C          1.89300      -16.41200        1.69900
H          1.65700      -17.10200        1.08900
C          1.33500      -15.15500        1.56200
H          0.72500      -14.98000        0.85600
C          1.66500      -14.15400        2.45000
H          1.29000      -13.28600        2.34800
C          2.54400      -14.41000        3.49800
H          2.74700      -13.72400        4.12400
C          5.84300      -15.16000        4.46400
C          6.86200      -14.93300        5.40200
H          6.73300      -15.17800        6.31100
C          8.05100      -14.35200        5.00500
H          8.73600      -14.19500        5.64400
C          8.25400      -13.99700        3.68000
H          9.07900      -13.61000        3.40800
C          7.24600      -14.21200        2.75800
H          7.37800      -13.96100        1.85200
C          6.04400      -14.79200        3.14300
H          5.35900      -14.93600        2.50100
C          3.60900      -11.84100        7.85200
C          4.16400      -11.72800        9.14200
C          3.64400      -10.78100       10.00400
H          4.01600      -10.70200       10.87500
C          2.60500       -9.94900        9.64400
C          2.06600      -10.07100        8.36000
H          1.35000       -9.50400        8.10100
C          2.55900      -11.01100        7.45000
C          5.29400      -12.61700        9.60000
H          5.49500      -12.43300       10.54200
H          6.08900      -12.44100        9.05700
H          5.03200      -13.55700        9.49900
C          2.00700       -8.95300       10.61200
H          2.69200       -8.67300       11.25500
H          1.26000       -9.36900       11.09100
H          1.68500       -8.17100       10.11700
C          1.94200      -11.12400        6.08600
H          2.63000      -10.98700        5.40200
H          1.24400      -10.44400        5.98700
H          1.54800      -12.01500        5.97800
C          0.04200      -15.37300        8.49000
C         -0.66700      -15.56100        7.28500
C         -1.85000      -16.30100        7.30900
H         -2.31600      -16.44400        6.49400
C         -2.37000      -16.83700        8.48000
C         -1.66700      -16.62100        9.66300
H         -2.01400      -16.96700       10.47700
C         -0.46400      -15.90900        9.68400
C         -0.20000      -14.99100        5.97200
H         -0.88800      -15.13300        5.29100
H          0.62800      -15.43800        5.69800
H         -0.03400      -14.03100        6.07300
C         -3.64500      -17.64500        8.48500
H         -3.59400      -18.34100        7.79400
H         -4.40700      -17.05700        8.29900
H         -3.76300      -18.06500        9.36400
C          0.25500      -15.76100       11.00500
H         -0.26800      -16.19300       11.71100
H          0.36400      -14.80900       11.21300
H          1.13800      -16.18400       10.94600
Pd         7.72600       -7.48900        4.91700
Se         7.07000       -5.19500        5.56100
Se         9.09900       -6.54800        3.09000
P          7.88200       -9.68200        4.31100
P          6.45700       -8.26300        6.64900
C          7.51600      -10.68500        5.81600
H          7.33800      -11.62500        5.56000
H          8.29400      -10.67100        6.42700
C          6.29200      -10.09400        6.51600
H          6.20600      -10.48700        7.42100
H          5.47600      -10.31800        6.00200
C          6.50800      -10.00800        3.15500
C          5.68000      -11.12600        3.27200
H          5.78500      -11.72200        4.00400
C          4.69700      -11.36400        2.31000
H          4.12000      -12.11400        2.39900
C          4.56000      -10.51300        1.22500
H          3.90300      -10.69100        0.56200
C          5.37500       -9.40400        1.10700
H          5.27800       -8.82300        0.36200
C          6.33800       -9.13600        2.07900
H          6.88100       -8.36000        2.00700
C          9.29800      -10.55000        3.54600
C          9.27000      -10.92800        2.21200
H          8.51200      -10.72200        1.67600
C         10.35100      -11.60900        1.65500
H         10.33500      -11.86000        0.73800
C         11.45400      -11.92100        2.44200
H         12.18600      -12.39600        2.06700
C         11.48400      -11.54000        3.76900
H         12.23900      -11.75500        4.30600
C         10.42100      -10.84700        4.32200
H         10.45500      -10.57200        5.23100
C          4.73500       -7.69000        6.72500
C          3.92500       -7.97000        5.61700
H          4.26500       -8.49900        4.90400
C          2.63100       -7.48100        5.55600
H          2.08600       -7.67100        4.80200
C          2.13000       -6.71300        6.59500
H          1.24400       -6.37200        6.54900
C          2.91600       -6.44400        7.69400
H          2.56700       -5.92800        8.41000
C          4.22000       -6.92400        7.76200
H          4.76000       -6.72800        8.51900
C          7.17300       -7.97500        8.30200
C          8.27200       -7.13100        8.45000
H          8.63700       -6.68800        7.69400
C          8.83400       -6.93900        9.71400
H          9.57700       -6.35800        9.81700
C          8.31800       -7.58600       10.81200
H          8.70900       -7.45400       11.66900
C          7.23200       -8.42800       10.67200
H          6.87800       -8.87200       11.43300
C          6.65700       -8.62800        9.42700
H          5.91200       -9.21000        9.33700
C          6.91000       -4.29600        3.86200
C          5.85400       -4.61300        2.98600
C          5.65300       -3.82500        1.86400
H          4.93300       -4.03300        1.28000
C          6.46400       -2.74800        1.56900
C          7.53200       -2.46800        2.41600
H          8.10900       -1.74200        2.21200
C          7.77900       -3.23800        3.56600
C          4.90700       -5.74400        3.25900
H          4.26500       -5.81600        2.52300
H          4.42700       -5.57300        4.09700
H          5.41000       -6.58100        3.33700
C          6.18000       -1.88900        0.35100
H          6.11800       -2.45800       -0.44500
H          6.90300       -1.23800        0.23100
H          5.33300       -1.41200        0.47800
C          8.93900       -2.89700        4.45600
H          9.49900       -3.69100        4.58200
H          8.60600       -2.59000        5.32400
H          9.47100       -2.18600        4.04200
C         10.74700       -7.54800        3.02000
C         11.18700       -8.05300        1.78600
C         12.43600       -8.66300        1.70800
H         12.73900       -8.98700        0.86900
C         13.25200       -8.81300        2.82600
C         12.78500       -8.32800        4.04200
H         13.32500       -8.43900        4.81700
C         11.55600       -7.68500        4.16700
C         10.33900       -7.96500        0.54200
H         10.78000       -8.44700       -0.18900
H         10.22400       -7.02400        0.29100
H          9.46300       -8.36600        0.71600
C         14.58200       -9.52200        2.72300
H         15.02000       -9.52200        3.59900
H         15.15000       -9.05700        2.07400
H         14.43800      -10.44500        2.43000
C         11.13200       -7.18300        5.52100
H         11.88100       -7.25800        6.14700
H         10.37800       -7.71900        5.84700
H         10.85900       -6.24400        5.44900
Cl         0.55300      -20.55100        2.69000
Cl        -1.12200      -19.09000        0.89200
Cl        -0.78900      -18.19700        3.60900
C         -0.89500      -19.59000        2.54800
H         -1.67700      -20.14600        2.82600
Cl         9.47500      -12.69700        8.49500
Cl        11.38000      -11.80000       10.45600
Cl        10.70500      -10.09100        8.23800
C         10.93900      -11.76300        8.76700
H         11.68100      -12.16700        8.23200
