175
C:\Users\Javier\OneDrive - Universitat de Barcelona\Tesi\4 - Contribucions\Treballs\3-PhD\chapter_1\cif\pc2p\HOKVOV.pc2p.pdb
Rh         9.74600        5.35900       -5.06500
P          9.36100        3.69200       -3.57000
C          7.59700        3.47400       -3.02100
H          7.54700        2.63700       -2.49500
C          6.67000        3.32900       -4.20400
H          6.92400        2.53900       -4.72500
H          6.75000        4.11500       -4.78200
C          5.19000        3.18300       -3.72300
H          4.59800        3.12900       -4.50200
H          5.09300        2.35200       -3.21200
C          4.78500        4.33600       -2.87300
H          4.81300        5.16000       -3.40400
H          3.86700        4.20700       -2.56000
C          5.69200        4.46800       -1.71200
H          5.59300        3.68000       -1.13800
H          5.42800        5.25400       -1.18800
C          7.15600        4.60900       -2.12100
H          7.28200        5.46000       -2.59100
H          7.71900        4.62100       -1.31900
C         10.31800        3.86300       -2.00400
H          9.98800        4.68900       -1.57000
C         10.13300        2.76200       -0.99500
H         10.46600        1.91900       -1.36900
H          9.17800        2.65100       -0.80500
C         10.87900        3.06800        0.30800
H         10.45700        3.83500        0.74700
H         10.80500        2.29800        0.91000
C         12.33600        3.37000        0.06300
H         12.74900        3.65500        0.90500
H         12.78700        2.55200       -0.23100
C         12.53800        4.43800       -0.96600
H         13.49600        4.54100       -1.14400
H         12.19900        5.29000       -0.62200
C         11.81300        4.09400       -2.27200
H         12.20600        3.28600       -2.66400
H         11.92300        4.82800       -2.91300
C          9.83000        2.07000       -4.30600
H         10.76300        1.87200       -4.08400
H          9.27000        1.36600       -3.91900
C          8.79000        7.18800       -6.04300
C          8.46000        7.16500       -4.58000
C          9.50500        7.06300       -3.70300
C          8.31900        3.07200        4.69500
C          8.18500        2.52400        3.42400
H          8.75300        2.82900        2.74000
C          7.24100        1.53800        3.11600
C          6.37600        1.08900        4.09800
H          5.72800        0.43600        3.90200
C          6.48000        1.61100        5.36800
C          7.43700        2.57300        5.66600
H          7.49600        2.89900        6.54600
C          7.14300        1.01800        1.74000
C          5.55300        1.14900        6.44000
C          9.91000        5.10400        3.83100
C         11.20200        5.61200        3.61900
H         11.89800        5.31700        4.17700
C         11.49200        6.52400        2.62900
C         10.50100        7.00000        1.78800
H         10.69900        7.61400        1.10500
C          9.21300        6.54300        1.98400
C          8.92800        5.62300        2.97500
H          8.04000        5.33400        3.08000
C         12.90000        7.00800        2.44300
C          8.12200        7.07600        1.10400
B          9.54300        4.09600        5.06500
F          8.16200        0.75000        1.12000
F          7.02100        2.10300        0.80000
F          6.13100        0.32100        1.42200
F         13.76000        6.01400        2.42900
F         13.24400        7.72700        3.46800
F         13.10200        7.59900        1.31300
F          8.03500        8.41500        1.17900
F          6.98900        6.57400        1.23200
F          8.46400        6.98100       -0.18200
F          4.60100        0.34600        6.05300
F          4.94200        2.14700        7.03800
F          6.20100        0.52400        7.41600
F          5.52500       -0.17600        6.30000
F          4.34700        1.59000        6.21900
F          5.83700        1.53800        7.59100
F          8.45600        0.60300        1.34300
F          6.40700        1.70100        1.01300
F          6.63500       -0.22500        1.78100
F         13.71000        6.89200        3.38900
F         12.89100        8.39900        2.29300
F         13.47100        6.71400        1.36700
F          7.20800        7.71800        1.83500
F          7.25500        6.08700        0.85300
F          8.42700        7.44200       -0.08500
C         10.84800        7.77400       -4.09600
C          8.32300        7.73600       -4.67600
H          8.10200        8.64500       -4.38400
H         10.79500        8.71200       -3.81600
H          9.31400        6.89200       -2.74800
H          7.91600        7.35700       -6.53700
H          7.51800        7.18800       -4.56400
C         10.10000        7.19500       -6.36300
H          8.08800        7.09900       -6.73600
H          7.52600        7.05600       -4.27300
H          9.15200        7.04400       -2.81800
P         10.13200        3.69200       -6.55900
C         11.89600        3.47400       -7.10800
H         11.94600        2.63700       -7.63400
C         12.82300        3.32900       -5.92600
H         12.56800        2.53900       -5.40400
H         12.74200        4.11500       -5.34700
C         14.30200        3.18300       -6.40600
H         14.89500        3.12900       -5.62700
H         14.39900        2.35200       -6.91700
C         14.70700        4.33600       -7.25600
H         14.67900        5.16000       -6.72500
H         15.62600        4.20700       -7.56900
C         13.80100        4.46800       -8.41700
H         13.89900        3.68000       -8.99100
H         14.06400        5.25400       -8.94100
C         12.33600        4.60900       -8.00800
H         12.21100        5.46000       -7.53800
H         11.77400        4.62100       -8.81000
C          9.17400        3.86300       -8.12500
H          9.50500        4.68900       -8.55900
C          9.35900        2.76200       -9.13400
H          9.02600        1.91900       -8.76000
H         10.31400        2.65100       -9.32400
C          8.61400        3.06800      -10.43700
H          9.03500        3.83500      -10.87600
H          8.68800        2.29800      -11.03900
C          7.15600        3.37000      -10.19200
H          6.74400        3.65500      -11.03400
H          6.70500        2.55200       -9.89800
C          6.95400        4.43800       -9.16300
H          5.99700        4.54100       -8.98500
H          7.29300        5.29000       -9.50700
C          7.67900        4.09400       -7.85700
H          7.28700        3.28600       -7.46500
H          7.57000        4.82800       -7.21700
C          9.66300        2.07000       -5.82300
H          8.72900        1.87200       -6.04500
H         10.22200        1.36600       -6.21000
C         10.70300        7.18800       -4.08600
C         11.03300        7.16500       -5.54900
C          9.98800        7.06300       -6.42600
C         10.76700        3.07200        5.43400
C         10.90100        2.52400        6.70500
H         10.33300        2.82900        7.38900
C         11.84500        1.53800        7.01300
C         12.71000        1.08900        6.03100
H         13.35800        0.43600        6.22700
C         12.60700        1.61100        4.76100
C         11.64900        2.57300        4.46300
H         11.59000        2.89900        3.58300
C         11.94300        1.01800        8.38900
C         13.53300        1.14900        3.68900
C          9.17600        5.10400        6.29800
C          7.88500        5.61200        6.51000
H          7.18800        5.31700        5.95200
C          7.59400        6.52400        7.50000
C          8.58500        7.00000        8.34100
H          8.38700        7.61400        9.02400
C          9.87400        6.54300        8.14500
C         10.15800        5.62300        7.15400
H         11.04600        5.33400        7.04900
C          6.18600        7.00800        7.68600
C         10.96400        7.07600        9.02500
F         10.92400        0.75000        9.00900
F         12.06500        2.10300        9.32900
F         12.95600        0.32100        8.70700
F          5.32600        6.01400        7.70000
F          5.84200        7.72700        6.66100
F          5.98400        7.59900        8.81600
F         11.05100        8.41500        8.95000
F         12.09700        6.57400        8.89700
F         10.62200        6.98100       10.31100
F         14.48600        0.34600        4.07600
F         14.14500        2.14700        3.09100
F         12.88500        0.52400        2.71300
