194
C:\Users\Javier\OneDrive - Universitat de Barcelona\Tesi\4 - Contribucions\Treballs\3-PhD\chapter_1\cif\pc2p\HOKWEM01.pc2p.pdb
Rh         7.71200        8.75700        4.99000
P          8.60600       10.24900        3.58800
P          9.07300        9.64900        6.50300
C          9.87100       11.20800        5.83400
H          9.31400       11.99700        6.05400
H         10.76500       11.33400        6.24000
C          9.98500       11.07500        4.46800
H         10.81500       10.57000        4.27700
H         10.09600       11.97900        4.08000
C          9.23200        9.48700        2.02900
H          8.43100        9.15600        1.52800
C         10.11500        8.26500        2.30000
H          9.63600        7.64000        2.90100
H         10.94300        8.55400        2.76000
C         10.48900        7.52600        0.97800
H         11.10400        6.77600        1.17500
H          9.67300        7.15500        0.55900
C         11.17200        8.52200        0.00600
H         12.05100        8.78600        0.37700
H         11.33100        8.07200       -0.86100
C         10.34500        9.75300       -0.22400
H          9.52300        9.50500       -0.71600
H         10.85600       10.38700       -0.78500
C          9.95200       10.45200        1.11000
H         10.76700       10.79000        1.56000
H          9.36400       11.22500        0.91800
C          7.45500       11.57100        2.98900
H          7.96300       12.15200        2.35300
C          6.28700       10.95600        2.22700
H          5.79100       10.33800        2.82100
H          6.62800       10.43500        1.45700
C          5.32800       12.07900        1.71800
H          5.81800       12.68400        1.10700
H          4.57700       11.67400        1.21700
C          4.79300       12.86400        2.89200
H          4.18300       13.57500        2.57200
H          4.28400       12.26500        3.49500
C          5.92800       13.46400        3.61800
H          5.57600       13.97700        4.38900
H          6.38600       14.10400        3.01800
C          6.95900       12.45500        4.13500
H          7.72400       12.93700        4.53700
H          6.54800       11.88900        4.83600
C         10.47900        8.60100        7.05100
H         11.04300        9.15400        7.66500
C         11.35900        8.17100        5.88700
H         11.75700        8.96900        5.45900
H         10.80900        7.70000        5.21200
C         12.49800        7.22200        6.39800
H         13.05400        6.93600        5.63100
H         13.07800        7.71600        7.02900
C         11.94200        6.00800        7.08500
H         12.67900        5.41800        7.38200
H         11.36400        5.49900        6.46300
C         11.14100        6.47600        8.27400
H         11.73300        6.96700        8.89600
H         10.77600        5.69100        8.75300
C          9.98800        7.38800        7.84700
H          9.50500        7.70200        8.65300
H          9.35000        6.87100        7.29300
C          8.20600       10.12300        8.05800
H          7.86900        9.27600        8.46900
C          6.97400       10.99600        7.77900
H          6.39800       10.55600        7.10500
H          7.25900       11.87300        7.42000
C          6.18000       11.19900        9.10400
H          5.37200       11.74600        8.93000
H          5.88800       10.32200        9.45800
C          7.06900       11.90000       10.12500
H          7.31400       12.79900        9.79100
H          6.57300       12.01300       10.97500
C          8.32500       11.09200       10.37400
H          8.07700       10.23800       10.81100
H          8.91000       11.59000       10.99800
C          9.10100       10.79000        9.10200
H          9.86100       10.19100        9.31400
H          9.46900       11.63200        8.73300
C          6.51200        7.02300        5.18200
C          6.39300        7.58300        6.42300
H          5.97400        8.43600        6.51700
H          6.72200        7.13400        7.19000
C          6.09700        7.50800        3.90600
H          6.30100        8.46900        3.84100
H          5.12800        7.38100        3.80500
H          6.56500        7.02900        3.19500
C          7.39100        5.74700        5.21000
H          8.15200        5.86500        4.61000
H          6.85300        4.98000        4.91400
H          7.70600        5.59200        6.12300
C          6.05100        7.37000        4.51300
C          6.87100        7.38500        3.41700
H          7.76500        7.06100        3.49400
H          6.55500        7.70300        2.58300
C          6.63700        6.84900        5.72100
H          6.53700        5.87600        5.75800
H          6.19400        7.24800        6.50600
H          7.59500        7.07600        5.75200
C          4.71700        8.09200        4.83000
H          4.76800        8.46700        5.73300
H          3.98100        7.45400        4.77700
H          4.57900        8.81400        4.18300
C          3.00200        3.89600        3.61100
C          2.35800        5.10100        3.43800
H          1.59900        5.31400        3.96900
C          2.83000        6.02600        2.46800
C          3.88700        5.74800        1.68500
H          4.17200        6.36300        1.01800
C          4.55200        4.55200        1.86700
C          4.13200        3.64800        2.81300
H          4.61600        2.83800        2.93000
C          2.11800        7.32800        2.32600
C          5.78100        4.25400        1.04700
C          3.48500        3.29500        6.08300
C          4.75900        2.78500        6.31300
H          5.09800        2.10500        5.74200
C          5.54500        3.24800        7.35600
C          5.13900        4.28100        8.19100
H          5.69300        4.60400        8.89200
C          3.89000        4.81700        7.94800
C          3.07500        4.36700        6.92200
H          2.23100        4.77900        6.77900
C          6.92200        2.66100        7.55400
C          3.44500        5.99900        8.80900
C          0.95300        2.89700        5.13100
C         -0.01900        3.14100        4.17700
H          0.26200        3.39700        3.30700
C         -1.37300        3.03400        4.41800
C         -1.83500        2.69800        5.68300
H         -2.76500        2.66600        5.87300
C         -0.91200        2.41400        6.64300
C          0.45900        2.53500        6.38800
H          1.07500        2.36600        7.09200
C         -2.34400        3.38900        3.35500
C         -1.34600        2.00900        8.03100
C          2.78400        1.28500        4.38500
C          2.59000        0.83900        3.06600
H          2.40000        1.48000        2.39200
C          2.66200       -0.51100        2.70800
C          2.91100       -1.48300        3.67600
H          2.96000       -2.40300        3.44300
C          3.08600       -1.07500        4.97400
C          3.03100        0.30000        5.33100
H          3.16600        0.55200        6.23600
C          2.48700       -0.88800        1.29900
C          3.40300       -2.04300        6.03300
B          2.56000        2.83400        4.78600
F          0.90600        7.38200        2.83300
F          2.02300        7.74700        1.07900
F          2.81100        8.31600        2.89400
F          7.39300        2.84700        8.75900
F          6.89800        1.32100        7.44500
F          7.76000        3.08800        6.65900
F         -2.64800        1.80700        8.27800
F         -0.93600        2.93900        8.96700
F         -0.54100        0.96800        8.41700
F          2.35400       -2.12300        6.91000
F          3.67700       -3.31700        5.71900
F          4.37900       -1.73900        6.90800
F          5.53200        4.52700       -0.24900
F          6.20600        2.99100        1.09100
F          6.78800        5.10200        1.37400
F          2.09900        6.03600        8.87600
F          3.91500        7.16500        8.39300
F          3.82400        5.87000       10.08000
F         -3.57600        3.47700        3.87200
F         -2.06600        4.46800        2.64500
F         -2.37400        2.34200        2.47000
F          1.29700       -0.55900        0.73000
F          3.39900       -0.17300        0.52900
F          2.74700       -2.16500        0.99600
F          0.84100        7.18200        1.99900
F          5.91500        4.74800       -0.20200
F          5.78000        2.92100        0.79200
F          6.91700        4.51000        1.70600
F          3.52000        5.55500       10.05200
F          2.28200        6.58900        8.55300
F          4.36600        6.99600        8.70400
F         -2.18900        4.74700        3.17700
F         -2.10200        2.93600        2.12200
F         -3.66000        3.28200        3.57900
F          2.17200       -2.20500        1.27300
F          1.31700       -0.27900        0.93000
F          3.45000       -0.58300        0.44900
F          2.63300        8.15200        1.47500
F          2.03600        7.95800        3.47400
F          7.02200        1.74800        8.49000
F          7.48000        2.17000        6.46900
F          7.78500        3.59500        8.00100
F         -1.58500        3.05700        8.82800
F         -0.73700        1.03100        8.71200
F         -2.54100        1.34000        7.88400
F          2.82500       -1.93000        7.24900
F          3.12700       -3.29600        5.64000
F          4.68700       -1.95200        6.45500
