73
C:\Users\Javier\OneDrive - Universitat de Barcelona\Tesi\4 - Contribucions\Treballs\3-PhD\chapter_1\cif\pc2p\HOLYIR.pc2p.pdb
Pd         6.58100        3.17100        5.43000
Ge         5.00300        4.24500        3.93200
Ge         8.07700        3.61000        3.57100
P          8.11800        2.11300        6.78500
P          5.07100        2.82200        7.15000
C          4.17800        2.98300        2.65900
C          3.51200        3.45400        1.52900
C          2.94200        2.58600        0.61200
C          3.01200        1.22300        0.81700
C          3.66800        0.73400        1.94300
C          4.24200        1.61400        2.84200
C          3.50700        5.24300        4.74800
C          3.74500        6.51500        5.28900
C          2.75900        7.22300        5.94300
C          1.50300        6.69700        6.07400
C          1.21500        5.44900        5.53300
C          2.21500        4.73800        4.87600
C          8.81800        5.42300        3.76100
C          9.49200        5.81600        4.88800
C          9.92900        7.13700        5.06600
C          9.65100        8.07900        4.12300
C          8.97400        7.71600        2.98000
C          8.57100        6.40500        2.78700
C          9.59700        2.37400        3.26500
C          9.33500        1.04600        2.90700
C         10.36500        0.17800        2.56600
C         11.67200        0.62200        2.54700
C         11.94400        1.92500        2.92500
C         10.92300        2.77900        3.28900
C          9.84500        2.61700        7.03600
C          8.28500        0.32200        6.47200
C          4.43800        4.23700        8.10500
C          3.56400        1.86200        6.80000
C          7.42200        2.17400        8.47600
C          5.94200        1.82300        8.44400
H          5.52100        5.46400        3.01700
H          7.29400        3.47100        2.00000
H          3.43900        4.39000        1.39200
H          2.50200        2.92200       -0.16000
H          2.63000        0.62000        0.18800
H          3.72200       -0.20200        2.09300
H          4.68300        1.27200        3.61200
H          4.60600        6.90200        5.19000
H          2.95300        8.07600        6.31300
H          0.82600        7.18600        6.52900
H          0.34400        5.07800        5.61100
H          2.01800        3.88600        4.50300
H          9.67600        5.17200        5.56300
H         10.40400        7.38500        5.85100
H          9.93500        8.97900        4.23700
H          8.78000        8.37200        2.32000
H          8.12500        6.16900        1.98200
H          8.43500        0.74200        2.89000
H         10.17000       -0.72300        2.33800
H         12.37500        0.03500        2.29200
H         12.84200        2.23600        2.93300
H         11.12700        3.66800        3.55300
H         10.39000        2.17900        6.39200
H         10.13300        2.37600        7.91000
H          9.91900        3.55800        6.92700
H          7.66900       -0.15100        7.02000
H          9.17100        0.04300        6.67600
H          8.09900        0.14300        5.55800
H          5.00700        4.39400        8.85000
H          3.55900        4.04300        8.41300
H          4.41700        5.01100        7.55400
H          2.87600        2.45400        6.51800
H          3.28600        1.40400        7.58400
H          3.74400        1.23300        6.11100
H          7.88000        1.55300        9.03000
H          7.52600        3.04900        8.83100
H          5.55200        2.00300        9.29100
H          5.84900        0.89900        8.24000
