94
C:\Users\Javier\OneDrive - Universitat de Barcelona\Tesi\4 - Contribucions\Treballs\3-PhD\chapter_1\cif\pc2p\HONNII.pc2p.pdb
Ru         2.08400        2.82200        6.73600
P         -0.09700        2.46900        6.25100
P          2.34600        0.78700        5.78500
C          1.49600        1.79500        8.37300
C          1.11000        1.11100        9.29500
C          0.66200        0.14400       10.25900
C          1.26300       -1.12300       10.34000
H          1.99300       -1.33100        9.76700
C          0.80800       -2.07400       11.24100
H          1.23500       -2.92200       11.27300
C         -0.25500       -1.81800       12.09500
C         -0.87600       -0.57100       11.99400
H         -1.62600       -0.38100       12.54500
C         -0.42400        0.39600       11.10700
H         -0.85800        1.24000       11.07500
C         -0.70200       -2.83300       13.10900
H         -0.15200       -3.64100       13.02700
H         -1.64200       -3.06000       12.95200
H         -0.60300       -2.46000       14.00900
C          2.48000        4.84700        7.59500
C          2.47300        4.96800        6.14600
C          3.52900        4.18400        5.63000
C          4.21900        3.55500        6.74500
C          3.56900        3.98600        7.94100
C          1.63400        5.61800        8.56300
H          2.06400        6.47600        8.76100
H          1.53400        5.10300        9.39000
H          0.75200        5.77900        8.16900
C          1.62000        5.93900        5.38700
H          2.09300        6.79400        5.30300
H          0.77700        6.07800        5.86500
H          1.43300        5.58200        4.49400
C          4.02000        4.15900        4.20800
H          4.64200        4.90300        4.06400
H          3.25800        4.24700        3.59900
H          4.47800        3.31000        4.03700
C          5.49300        2.76900        6.62700
H          6.25800        3.38100        6.66300
H          5.50100        2.28600        5.77400
H          5.55100        2.12900        7.36700
C          3.98800        3.66000        9.35000
H          4.64800        4.31800        9.65600
H          4.38400        2.76400        9.37400
H          3.20500        3.68700        9.93800
C         -0.39600        0.64800        6.22000
H         -0.38000        0.28400        7.13900
H         -1.28100        0.45400        5.82100
C          0.70800        0.01100        5.38300
H          0.51000        0.13400        4.42000
H          0.74700       -0.96000        5.56600
C         -0.79000        2.95600        4.61800
C          0.05400        3.44000        3.63000
H          0.97400        3.58000        3.82400
C         -0.43200        3.72500        2.35200
H          0.15700        4.05800        1.68500
C         -1.76600        3.52400        2.05400
H         -2.09400        3.71100        1.18100
C         -2.62200        3.04500        3.03400
H         -3.54000        2.90600        2.83200
C         -2.14400        2.76900        4.31200
H         -2.74000        2.45200        4.98100
C         -1.36800        3.10800        7.40600
C         -1.56200        4.48800        7.48600
H         -1.07700        5.06100        6.90100
C         -2.44800        5.04400        8.40000
H         -2.56600        5.98500        8.44300
C         -3.15900        4.21200        9.25300
H         -3.77100        4.58200        9.87700
C         -2.97600        2.84400        9.19100
H         -3.46300        2.27700        9.77800
C         -2.08100        2.28800        8.27700
H         -1.95800        1.34700        8.24900
C          3.22600        0.68000        4.17500
C          2.59000        1.08000        2.99300
H          1.67900        1.34500        3.01800
C          3.27700        1.09300        1.78500
H          2.83300        1.35800        0.98800
C          4.61200        0.71800        1.74400
H          5.08400        0.72700        0.92000
C          5.25200        0.33200        2.90100
H          6.16800        0.08200        2.87200
C          4.56800        0.30700        4.10900
H          5.01900        0.03400        4.89800
C          3.22900       -0.49800        6.75700
C          3.94500       -0.13700        7.89300
H          3.94600        0.76900        8.17900
C          4.66000       -1.08700        8.61100
H          5.15800       -0.82800        9.37800
C          4.64800       -2.40900        8.21000
H          5.12600       -3.06000        8.71000
C          3.94100       -2.78800        7.08200
H          3.93900       -3.69700        6.80400
C          3.23400       -1.83700        6.35500
H          2.75100       -2.09800        5.58100
