86
C:\Users\Javier\OneDrive - Universitat de Barcelona\Tesi\4 - Contribucions\Treballs\3-PhD\chapter_1\cif\pc2p\HOWMOY.pc2p.pdb
C          9.24900        6.05900        9.56700
C          8.55700        4.72100        9.88900
C          7.15600        4.88000       10.40100
C          6.11400        5.11000        9.50300
H          6.29100        5.18500        8.59300
C          4.81900        5.22500        9.97000
H          4.12400        5.38700        9.37600
C          4.55500        5.10100       11.32600
H          3.67900        5.15500       11.63400
C          5.59400        4.89700       12.22500
H          5.41400        4.82200       13.13400
C          6.90000        4.80400       11.76500
H          7.60100        4.69200       12.36700
C          9.94200        5.02600        6.50700
H         10.15100        4.15900        6.77100
C         10.86200        6.00500        6.02000
H         11.77600        5.88300        5.90900
C         10.14500        7.18500        5.73500
H         10.50400        7.97300        5.39200
C          8.77700        6.95800        6.06200
H          8.08600        7.57700        5.99000
C          8.65900        5.61400        6.51900
H          7.87200        5.19400        6.78100
C          8.34100        9.45800        9.69900
C          8.36900       10.68600       10.37800
H          9.12200       11.22900       10.33000
C          7.26400       11.08700       11.12100
H          7.28400       11.89800       11.57400
C          6.14400       10.29700       11.19300
H          5.41600       10.57100       11.70100
C          6.09800        9.09200       10.50900
H          5.33400        8.56400       10.54800
C          7.19500        8.67200        9.76500
H          7.16100        7.86300        9.30700
C          9.58500       10.12900        7.24200
C          8.31800       10.26200        6.65900
H          7.58800        9.82600        7.03700
C          8.14500       11.04100        5.52200
H          7.30200       11.12100        5.14000
C          9.22700       11.69900        4.95100
H          9.11100       12.21500        4.18600
C         10.48300       11.58200        5.53100
H         11.20800       12.02800        5.15600
C         10.66700       10.80300        6.67000
H         11.51100       10.73100        7.05200
C         11.26600        9.48900        9.55300
H         11.91800        9.84300        8.92800
H         11.04500       10.18800       10.18800
C         11.85600        8.28700       10.29100
H         11.29900        8.05300       11.04900
H         12.74500        8.49800       10.61700
C         13.42100        7.24100        8.11900
C         14.65300        6.70700        8.49100
H         14.70500        6.11100        9.20400
C         15.80500        7.06000        7.80300
H         16.62600        6.70200        8.05600
C         15.73700        7.94600        6.74100
H         16.50900        8.17400        6.27600
C         14.51700        8.49500        6.36900
H         14.47500        9.10500        5.66900
C         13.35800        8.13100        7.04400
H         12.53700        8.48000        6.77900
C         12.35500        5.42100       10.08000
C         12.42700        4.19000        9.42300
H         12.30000        4.14600        8.50200
C         12.68900        3.03700       10.14000
H         12.74800        2.22100        9.69800
C         12.86500        3.09600       11.51500
H         13.01400        2.31500       11.99700
C         12.81900        4.31200       12.17100
H         12.96100        4.35000       13.09000
C         12.56000        5.47800       11.46200
H         12.52200        6.29400       11.90600
F          9.35100        6.63800       10.80400
F          9.34000        4.07800       10.81500
F          8.56200        3.91500        8.78500
P          9.74500        8.96900        8.64200
P         11.93500        6.88500        9.10800
Ru         9.93500        6.77000        7.97700
F          4.86200        8.36300        7.59600
F          5.30500        8.43700        5.37300
F          3.16100        8.62000        6.11300
F          3.83700        6.74500        5.03300
F          3.39500        6.67300        7.25300
F          5.53400        6.48800        6.51600
P          4.35300        7.56300        6.31700
