87
C:\Users\Javier\OneDrive - Universitat de Barcelona\Tesi\4 - Contribucions\Treballs\3-PhD\chapter_1\cif\pc2p\HUKSEL.pc2p.pdb
C         10.20500        1.70500        9.47500
H          9.17000        1.72700        9.42100
H         10.40200        1.04900        8.89500
C         10.60600        1.27600       10.88300
H         10.33700        1.94300       11.43900
H         11.59500        1.19200       10.97900
C          9.94200       -0.01700       11.30900
C         10.58600       -1.22800       11.19400
H         11.44000       -1.26500       10.87700
C          9.96900       -2.40500       11.56700
H         10.49300       -3.14600       11.57200
C          8.72100       -2.40000       12.05000
H          8.18400       -3.10200       12.21100
C          8.03000       -1.22100       12.15200
H          7.38000       -1.25400       12.56800
C          8.66400       -0.04400       11.78100
H          8.21000        0.66000       11.89600
C          9.42000        4.43100        9.86200
H          9.14400        3.88300       10.54800
H          9.70200        5.21400       10.35600
C          8.29800        4.71200        8.86900
H          8.57300        5.38800        8.36600
H          8.27500        3.89400        8.25900
C          6.96000        5.02300        9.49700
C          6.04100        4.01700        9.68400
H          6.16100        3.19000        9.37500
C          4.85200        4.21700       10.30000
H          4.02100        3.52000       10.52500
C          4.52400        5.44500       10.77200
H          3.65800        5.56600       11.06100
C          5.38100        6.47500       10.60600
H          5.75900        7.10600       11.06100
C          6.62900        6.27000        9.97500
H          7.32800        6.93000        9.88600
C         14.12700        3.79700        7.57200
H         14.56500        3.87900        8.18500
H         14.82500        3.48500        6.86400
C         13.44700        5.08900        7.14600
H         14.04700        5.81000        7.01500
H         13.03500        4.95400        6.28900
C         13.71300        1.25600        8.90700
C         13.64400       -0.10100        8.62000
H         13.16500       -0.37000        7.91900
C         14.21500       -1.03000        9.46200
H         14.13700       -1.78200        9.34900
C         14.84500       -0.62900       10.59900
H         15.24000       -1.21000       11.16300
C         14.93000        0.71100       10.91300
H         15.49900        1.01200       11.64900
C         14.36000        1.64100       10.07200
H         14.41000        2.50800       10.30200
C         12.57400        1.69900        6.30700
C         13.57600        1.08900        5.57100
H         14.39700        1.10000        5.87500
C         13.27900        0.44400        4.37600
H         14.05900        0.08400        3.88300
C         11.97800        0.41800        3.92900
H         11.85500        0.08800        3.16800
C         10.99300        1.00300        4.63900
H         10.31100        1.10000        4.36600
C         11.29200        1.65400        5.82700
H         10.63500        1.98700        6.22000
C         12.96700        6.29900        9.71200
C         13.68600        7.47800        9.56600
H         13.67000        7.85400        8.76200
C         14.38900        7.99000       10.63200
H         14.91600        8.61300       10.50200
C         14.41400        7.35500       11.83800
H         14.91600        7.65600       12.49200
C         13.70800        6.19500       12.00900
H         13.72200        5.70500       12.84700
C         12.99600        5.65800       10.95100
H         12.45100        4.89500       11.04300
C         11.14400        6.81800        7.50600
C         10.61100        7.87800        8.21300
H         10.79100        7.89800        8.99200
C          9.78500        8.80700        7.59500
H          9.42900        9.52600        8.09800
C          9.49700        8.67500        6.28700
H          8.88400        9.15200        5.90100
C         10.00000        7.61600        5.55300
H          9.94800        7.56800        4.62400
C         10.82000        6.70600        6.16100
H         11.15400        6.02800        5.72200
P         12.86000        2.51300        7.91200
P         12.09000        5.49600        8.32900
Pd        11.07000        3.52900        8.91100
