92
C:\Users\Javier\OneDrive - Universitat de Barcelona\Tesi\4 - Contribucions\Treballs\3-PhD\chapter_1\cif\pc2p\HULFEB.pc2p.pdb
C          5.09800        3.75000        1.61300
H          4.90000        2.92900        1.09700
H          5.80100        4.25700        1.13300
C          5.58700        3.37900        3.01900
H          6.46200        2.92400        2.96300
H          4.94200        2.76700        3.45300
C          3.11600        5.21900        0.06600
C          3.94600        4.96400       -1.02100
H          4.80000        4.56800       -0.88400
C          3.53200        5.28400       -2.29800
H          4.09800        5.10000       -3.03800
C          2.30900        5.86900       -2.50600
H          2.03700        6.08900       -3.38800
C          1.47400        6.13800       -1.43900
H          0.62700        6.54600       -1.58500
C          1.87600        5.81100       -0.15700
H          1.30000        5.99400        0.57800
C          2.33400        3.54400        2.25400
C          2.01400        3.38500        3.58900
H          2.39000        3.97500        4.23200
C          1.15800        2.38300        4.00600
H          0.95700        2.28200        4.92900
C          0.60200        1.53300        3.08800
H          0.02600        0.83500        3.37200
C          0.88000        1.69700        1.75000
H          0.47400        1.12600        1.11100
C          1.74500        2.68300        1.33200
H          1.94300        2.77600        0.40700
C          7.35200        5.62500        3.52400
C          8.39200        4.87600        2.98000
H          8.28700        3.94100        2.85000
C          9.58500        5.49300        2.62600
H         10.29000        4.98000        2.24400
C          9.75400        6.84300        2.82400
H         10.57000        7.26100        2.57700
C          8.73700        7.58600        3.38300
H          8.86400        8.51400        3.54200
C          7.53500        6.99600        3.71400
H          6.83200        7.52300        4.07100
C          5.91600        4.41300        5.73700
C          6.85200        4.99700        6.57200
H          7.46900        5.62500        6.21400
C          6.90900        4.68100        7.92600
H          7.56100        5.08900        8.48400
C          6.02100        3.77900        8.44800
H          6.05400        3.56000        9.37100
C          5.08400        3.19600        7.64000
H          4.47200        2.56700        8.00700
C          5.01600        3.51000        6.29000
H          4.35300        3.10800        5.74300
C          4.76300        9.25400        7.06300
C          5.69600        8.33600        7.51900
H          5.89700        7.58300        6.97700
C          6.34500        8.47200        8.73200
H          6.98500        7.82600        9.00600
C          6.06100        9.55000        9.54400
C          5.14500       10.47700        9.13500
H          4.94400       11.22300        9.68700
C          4.51100       10.32200        7.90800
H          3.87800       10.97600        7.63800
C          6.31200       10.61600       11.64900
H          6.78900       10.52100       12.50100
H          5.34800       10.54700       11.80700
H          6.51500       11.49000       11.25600
C          4.41300       10.51900        4.36700
H          3.89300       10.53600        3.53400
H          5.36500       10.44600        4.15600
H          4.25300       11.34700        4.86800
C          2.06400        9.29300        5.72900
H          1.58000        9.32100        4.87900
H          1.92900       10.13600        6.21100
H          1.73200        8.54900        6.27200
C          2.37600        7.37000        2.64500
C          2.56200        8.39200        1.73300
C          1.45800        9.16400        1.34100
H          1.58200        9.86500        0.71200
C          0.21000        8.92900        1.84400
H         -0.52100        9.47500        1.57700
C          0.01400        7.89900        2.73900
H         -0.85400        7.72300        3.08100
C          1.08000        7.12700        3.13200
H          0.93800        6.41500        3.74600
C          3.90000        8.66800        1.12600
H          4.57800        8.70600        1.83400
H          3.87300        9.52600        0.65400
H          4.12500        7.95400        0.49500
O          4.33900        7.65200        4.81300
O          6.72200        9.59000       10.75900
P          3.57800        4.77500        1.76600
P          5.74200        4.92200        3.99500
Pd         3.95900        6.29300        3.33500
Si         3.88900        9.05400        5.39800
