162
C:\Users\Javier\OneDrive - Universitat de Barcelona\Tesi\4 - Contribucions\Treballs\3-PhD\chapter_1\cif\pc2p\HUPJUY.pc2p.pdb
Pd        -5.58500        4.02200        7.70900
Se        -7.98200        4.17100        7.21800
Se        -5.76100        1.71100        8.52500
P         -5.23700        6.23100        7.26300
P         -3.34000        3.90800        8.04300
O         -9.79500       -0.18300        6.97300
H        -10.54600       -0.44200        6.70100
O        -10.05400        1.17700       10.37300
H        -10.75100        0.84100       10.04500
C         -8.75500        3.00200        8.61800
H         -8.26500        3.16300        9.46400
H         -9.69600        3.27400        8.76600
C         -8.72900        1.50500        8.32900
C         -7.41900        1.03400        7.71700
H         -7.42000        1.29100        6.76000
H         -7.39900        0.04500        7.75800
C         -9.87900        1.18200        7.36100
H        -10.74800        1.35400        7.80200
H         -9.81700        1.76400        6.56100
C         -8.91500        0.72700        9.63800
H         -9.02000       -0.23800        9.43300
H         -8.10500        0.83000       10.19800
C         -3.44200        6.44000        6.99900
H         -3.18700        6.10600        6.10300
H         -3.19500        7.39700        7.06200
C         -2.72000        5.62500        8.09900
H         -2.90100        6.02200        8.98900
H         -1.74300        5.63800        7.94500
C         -5.61600        7.27800        8.71000
C         -6.71300        6.96100        9.48500
H         -7.26500        6.22300        9.25400
C         -7.01000        7.73300       10.61500
H         -7.77700        7.52400       11.13500
C         -6.19700        8.80400       10.98700
H         -6.39600        9.31200       11.76600
C         -5.11500        9.11600       10.22400
H         -4.56700        9.85400       10.46000
C         -4.81200        8.35200        9.09600
H         -4.04400        8.56800        8.58000
C         -6.01700        7.07400        5.86000
C         -6.56500        6.31300        4.82900
H         -6.52500        5.36600        4.87300
C         -7.17300        6.92600        3.73900
H         -7.59100        6.40300        3.06700
C         -7.16100        8.29300        3.63800
H         -7.50600        8.70100        2.85400
C         -6.66200        9.09500        4.64500
H         -6.71400       10.04100        4.58600
C         -6.07300        8.46500        5.77300
H         -5.71400        8.99700        6.47200
C         -2.39600        3.08900        6.72700
C         -1.11700        3.48000        6.39000
H         -0.74100        4.24700        6.80200
C         -0.37200        2.77400        5.46700
H          0.51100        3.05400        5.25900
C         -0.89900        1.67100        4.85200
H         -0.38200        1.19000        4.21800
C         -2.18600        1.26100        5.15600
H         -2.55700        0.49700        4.73000
C         -2.91900        1.97000        6.07800
H         -3.80500        1.69000        6.28000
C         -2.78100        3.09200        9.56100
C         -2.38200        1.75300        9.53400
H         -2.35500        1.28800        8.70700
C         -2.02700        1.09200       10.70500
H         -1.76900        0.18000       10.67900
C         -2.05300        1.77700       11.91500
H         -1.78900        1.33800       12.71500
C         -2.46400        3.11000       11.95300
H         -2.49100        3.57000       12.78400
C         -2.83400        3.76600       10.79000
H         -3.12300        4.67000       10.82500
Pd       -12.94100        9.11500        7.45000
Se       -13.29700       11.53200        7.41400
Se       -15.34400        8.63500        7.57000
P        -10.74000        9.63300        7.57900
P        -12.23900        6.94800        7.37600
O        -17.55900       12.66800        5.92600
H        -18.19300       13.04800        6.32500
O        -17.36600       12.67800        9.52600
H        -18.14800       12.90000        9.73800
C        -14.97100       11.74200        8.42000
H        -14.97100       11.08900        9.16700
H        -14.98500       12.64600        8.81900
C        -16.21500       11.55400        7.64100
C        -16.20100       10.26600        6.80600
H        -15.74500       10.47000        5.95000
H        -17.13800       10.03900        6.58900
C        -16.41000       12.77100        6.68200
H        -16.44900       13.60400        7.21800
H        -15.62900       12.83400        6.07800
C        -17.41500       11.48000        8.62200
H        -18.26700       11.47200        8.11600
H        -17.36400       10.65000        9.15700
C         -9.74700        8.11100        7.29500
H         -9.63300        7.95800        6.32300
H         -8.84900        8.21100        7.69900
C        -10.48000        6.92400        7.93400
H        -10.43700        6.99000        8.92000
H        -10.05000        6.07500        7.65900
C        -10.11600       10.89600        6.43300
C        -10.09100       12.22900        6.80600
H        -10.27200       12.46900        7.70700
C         -9.80200       13.22300        5.86200
H         -9.78400       14.13500        6.12600
C         -9.54900       12.88700        4.56900
H         -9.39200       13.56400        3.92200
C         -9.52300       11.55400        4.20000
H         -9.28800       11.31900        3.31000
C         -9.83500       10.55500        5.11900
H         -9.85500        9.64500        4.84700
C        -10.30100       10.13100        9.27500
C         -9.08700       10.74800        9.58200
H         -8.46700       10.95400        8.89400
C         -8.79200       11.06000       10.90700
H         -7.96700       11.48000       11.11700
C         -9.67400       10.76900       11.90700
H         -9.46200       11.00100       12.80300
C        -10.86500       10.13900       11.62800
H        -11.46300        9.90400       12.32900
C        -11.18200        9.85400       10.30100
H        -12.02200        9.45700       10.09900
C        -12.25000        6.24400        5.70900
C        -11.18700        5.55600        5.14700
H        -10.36900        5.47700        5.62300
C        -11.31800        4.97700        3.87600
H        -10.59600        4.49000        3.49700
C        -12.49400        5.11500        3.18200
H        -12.56900        4.75500        2.30700
C        -13.54200        5.76000        3.73200
H        -14.36200        5.81300        3.25400
C        -13.44600        6.34700        4.98800
H        -14.18700        6.81200        5.35600
C        -13.04600        5.66500        8.37900
C        -12.84200        4.30000        8.13600
H        -12.27300        4.02800        7.42600
C        -13.46700        3.34300        8.92700
H        -13.31300        2.41700        8.76900
C        -14.31100        3.74500        9.94300
H        -14.76700        3.09700       10.46700
C        -14.49000        5.07800       10.19400
H        -15.05600        5.34500       10.91000
C        -13.86800        6.04000        9.43300
H        -13.99900        6.96100        9.62800
O        -17.45600       11.19500        3.77000
H        -16.77800       10.93000        3.35100
C        -18.27300       10.20300        3.93700
H        -17.78800        9.43900        4.31200
H        -18.66200        9.94900        3.07400
H        -18.98900       10.46700        4.55100
O        -21.09900       13.40500        4.50400
H        -20.55100       13.39500        5.14100
C        -21.50300       14.82600        4.21100
H        -21.20100       15.40700        4.94000
H        -22.47900       14.87800        4.13400
H        -21.09300       15.11600        3.37100
C        -17.39900       10.45700        3.41800
H        -18.23200       10.93800        3.60600
H        -17.09900       10.66300        2.50900
H        -16.71100       10.73400        4.06000
H        -18.11300        8.94100        4.19800
O        -17.61900        9.08900        3.53500
