75
C:\Users\Javier\OneDrive - Universitat de Barcelona\Tesi\4 - Contribucions\Treballs\3-PhD\chapter_1\cif\pc2p\IBIWEV.pc2p.pdb
Pd         2.31900        2.50400        6.09700
C          1.19700        3.98200        4.94500
C          0.29500        3.19400        5.71000
C          0.40400        3.12000        7.11100
C          0.89000        4.27000        7.96200
C         -0.47000        2.12400        7.81500
P          3.16500        0.97200        7.57900
C          4.96700        0.81100        7.22100
C          5.15000        0.83100        5.69900
C          3.08900        1.32800        9.35200
C          2.23900        0.60100       10.19600
C          2.20600        0.91900       11.55900
C          2.93300        1.93200       12.05400
C          3.76700        2.66500       11.22700
C          3.80700        2.38000        9.87500
C          2.52300       -0.70200        7.36100
C          1.48500       -0.90300        6.45900
C          1.00200       -2.18500        6.25900
C          1.53000       -3.24100        6.92000
C          2.55800       -3.05400        7.81700
C          3.05300       -1.77800        8.02200
P          4.34000        2.32600        5.02100
C          5.45800        3.68900        5.46600
C          4.91100        4.90100        5.88800
C          5.71700        5.95600        6.26300
C          7.08700        5.82400        6.25200
C          7.63300        4.62300        5.85200
C          6.84400        3.58700        5.44200
C          4.35100        2.05300        3.22100
C          5.56300        2.03700        2.49500
C          5.48300        1.77300        1.12200
C          4.31500        1.55200        0.50400
C          3.13300        1.53900        1.22100
C          3.19100        1.78700        2.58300
H          1.06300        3.91300        3.95500
H          1.67100        4.75000        5.37800
H         -0.17800        2.48000        5.19100
H          1.63000        4.84600        7.61900
H          0.17000        4.94300        8.06700
H          1.24500        3.99300        8.85100
H         -1.33400        2.54400        8.08600
H         -0.75000        1.40100        7.18900
H          0.01100        1.77100        8.62700
H          5.45000        1.61000        7.58200
H          5.28400       -0.04800        7.61900
H          6.10300        0.86900        5.41500
H          4.71200        0.01600        5.32200
H          1.67800       -0.14500        9.84100
H          1.36700        0.56400       11.95100
H          3.14700        1.98000       13.02900
H          4.36900        3.31700       11.69000
H          4.33900        2.93000        9.24300
H          1.15200       -0.14500        5.90100
H          0.21500       -2.28600        5.65800
H          1.21500       -4.18600        6.76000
H          3.00200       -3.75200        8.38400
H          3.68200       -1.65800        8.79500
H          3.96500        5.18500        5.75200
H          5.25100        6.82700        6.42400
H          7.64000        6.60100        6.53600
H          8.62800        4.54000        5.80800
H          7.15200        2.67300        5.17300
H          6.41100        2.15800        3.00600
H          6.34600        1.77100        0.61600
H          4.12700        1.38500       -0.46300
H          2.23800        1.44900        0.80300
H          2.29700        1.91600        3.00600
C          9.94600        0.58300        1.91400
F         10.83700        1.51700        2.08000
F         10.51100       -0.41900        1.33000
F          9.00200        1.11300        1.10400
S          9.15800        0.13500        3.45400
O         10.26300       -0.38300        4.18900
O          8.66900        1.33300        3.95500
O          8.23200       -0.86100        3.08300
