87
C:\Users\Javier\OneDrive - Universitat de Barcelona\Tesi\4 - Contribucions\Treballs\3-PhD\chapter_1\cif\pc2p\IBOZEF.pc2p.pdb
Rh         1.55300        4.93300        2.04400
P          1.92500        4.85700        4.30700
P          0.15100        3.15900        2.46600
O          3.65200        7.11000        4.29700
O         -0.43800        2.78200       -0.36400
C          2.15900        7.00500        1.57100
H          2.18600        7.71800        2.24400
C          3.22000        6.19200        1.31100
H          4.08000        6.26700        1.77600
C          3.09600        5.78500       -0.16200
H          3.90200        5.43500       -0.59400
C          1.85300        4.87100       -0.15600
H          1.78400        4.05000       -0.68900
C          0.78400        5.68900        0.12100
H         -0.12400        5.50400       -0.19800
C          1.34300        7.10900        0.28000
H          0.70800        7.85300        0.20800
C          2.48700        7.05200       -0.75700
H          2.16900        6.92900       -1.66500
H          3.08100        7.81800       -0.70700
C          1.18800        3.32100        4.96600
H          1.76300        2.56300        4.77700
H          1.06900        3.38700        5.92600
C         -0.15900        3.14800        4.27700
H         -0.75600        3.87100        4.52100
H         -0.56600        2.30900        4.54300
C          3.59900        4.89400        5.01200
C          4.30900        6.09400        4.94400
C          5.57500        6.20700        5.46200
H          6.03900        7.01100        5.39800
C          6.15400        5.12000        6.08200
H          7.00200        5.20000        6.45500
C          5.49200        3.91900        6.15200
H          5.89900        3.18400        6.55000
C          4.21800        3.80800        5.62800
H          3.76600        2.99800        5.68500
C          1.02400        6.14100        5.22800
C          1.14800        6.26400        6.60300
H          1.70600        5.68700        7.07200
C          0.43900        7.24900        7.28300
H          0.52400        7.32800        8.20500
C         -0.38600        8.10500        6.59000
H         -0.84100        8.77700        7.04600
C         -0.54500        7.97800        5.22300
H         -1.12300        8.54200        4.76300
C          0.16400        7.00200        4.54500
H          0.06700        6.91800        3.62400
C         -1.50000        3.05800        1.70600
C         -1.62000        2.90600        0.32100
C         -2.86300        2.87200       -0.28400
H         -2.93400        2.77400       -1.20600
C         -4.00400        2.98200        0.49900
H         -4.84200        2.95400        0.09700
C         -3.90800        3.13200        1.85700
H         -4.68000        3.20600        2.37000
C         -2.66600        3.17500        2.47000
H         -2.60800        3.28200        3.39200
C         -0.49200        2.76800       -1.79800
H          0.39700        2.67200       -2.15000
H         -0.87300        3.59100       -2.11200
H         -1.03200        2.03000       -2.09000
C          0.90800        1.52200        2.21000
C          0.35600        0.36900        2.73900
H         -0.45000        0.41500        3.20100
C          0.99000       -0.85300        2.58800
H          0.61400       -1.62000        2.95600
C          2.16200       -0.93600        1.90300
H          2.58800       -1.75600        1.80700
C          2.71500        0.19200        1.35300
H          3.51400        0.13200        0.87900
C          2.09000        1.42000        1.50000
H          2.46600        2.18000        1.11800
B         -0.51300        3.18600        8.49600
F         -0.80700        2.37700        9.60700
F          0.85500        3.33800        8.42000
F         -0.96800        2.53200        7.34900
F         -1.15100        4.38600        8.60500
O         -2.36800        0.00300        9.66300
C         -1.53900       -1.13700        9.58000
C          3.72700        8.39200        4.91000
H          3.13000        8.43600        5.65900
H          4.62600        8.54400        5.20400
H          3.48300        9.06200        4.26400
C          4.26000        8.41000        4.26000
H          4.87900        8.45200        3.52800
H          4.72600        8.56900        5.08300
H          3.58100        9.07800        4.14200
