84
C:\Users\Javier\OneDrive - Universitat de Barcelona\Tesi\4 - Contribucions\Treballs\3-PhD\chapter_1\cif\pc2p\IBOZIJ.pc2p.pdb
Rh         3.12500        9.28500        3.49500
P          5.27100        9.81600        4.09700
P          2.58900       10.86700        5.02700
C          3.83900        8.24900        1.62900
H          4.80900        8.28800        1.49300
C          3.43300        7.29100        2.52400
H          4.17100        6.77600        2.91100
C          2.13600        6.52100        2.44800
H          2.29100        5.61400        2.75600
H          1.85300        6.47400        1.52100
C          1.00000        7.13800        3.28000
H          0.15200        6.82500        2.92800
H          1.07500        6.81800        4.19300
C          0.99200        8.63800        3.29500
H          0.38500        9.03300        3.95500
C          1.28700        9.45500        2.23300
H          0.85600       10.33500        2.28400
C          1.54900        8.99100        0.81700
H          1.17200        9.63700        0.20000
H          1.09200        8.14600        0.67600
C          3.03200        8.80700        0.49200
H          3.11400        8.21400       -0.27000
H          3.40400        9.66700        0.23800
C          5.25100       11.03400        5.47500
H          5.18400       10.57500        6.32600
H          6.06900       11.55600        5.47200
C          4.04300       11.95200        5.27800
H          4.17500       12.52400        4.50500
H          3.91500       12.51300        6.05800
C          6.10300       10.74100        2.77200
C          7.49500       10.85500        2.70500
H          8.02800       10.40800        3.32100
C          8.07300       11.62600        1.73300
H          8.99800       11.69400        1.68800
C          7.29800       12.29400        0.82600
H          7.70100       12.82800        0.18200
C          5.91700       12.18400        0.85800
H          5.39700       12.63000        0.23000
C          5.32100       11.40400        1.83400
H          4.39500       11.32500        1.86200
C          6.45500        8.52800        4.60300
C          6.83800        7.53300        3.73200
H          6.53200        7.55300        2.85300
C          7.66900        6.50900        4.13400
H          7.92300        5.85100        3.52900
C          8.11300        6.46000        5.40600
H          8.64600        5.75400        5.69100
C          7.77500        7.44300        6.26300
H          8.10100        7.42000        7.13400
C          6.95600        8.48700        5.87100
H          6.74600        9.16300        6.47400
C          2.29000       10.17200        6.68000
C          2.05700        8.81400        6.81300
H          2.03300        8.27600        6.05500
C          1.86100        8.25500        8.05000
H          1.69000        7.34300        8.12700
C          1.91600        9.03300        9.16600
H          1.78400        8.65200       10.00600
C          2.16400       10.38900        9.06100
H          2.21000       10.91800        9.82400
C          2.34000       10.94700        7.82200
H          2.49500       11.86200        7.74800
C          1.21900       12.02200        4.70500
C          0.05400       12.02400        5.45000
H         -0.05600       11.41800        6.14600
C         -0.95400       12.93800        5.15200
H         -1.73500       12.94700        5.65700
C         -0.80600       13.82400        4.12300
H         -1.47800       14.44100        3.94300
C          0.33700       13.80400        3.35300
H          0.43000       14.39400        2.64100
C          1.34800       12.90000        3.64600
H          2.11800       12.88400        3.12500
B         -1.74200        4.68500        0.40500
F         -2.30100        5.32600       -0.59200
F         -0.59400        5.19100        0.83900
F         -1.73000        3.39400        0.17800
F         -2.52300        4.75700        1.47400
F         -2.45000        4.26600       -0.64600
F         -0.55700        4.85900       -0.15000
F         -1.82600        3.58300        1.11100
F         -2.64000        5.60000        0.78900
C         -4.88600        1.85100        0.58600
O         -4.21400        2.43500        1.60500
