62
C:\Users\Javier\OneDrive - Universitat de Barcelona\Tesi\4 - Contribucions\Treballs\3-PhD\chapter_1\cif\pc2p\IDAMEF.pc2p.pdb
Pd        14.22800        4.71600        5.73800
P         14.34200        4.90500        3.52800
P         14.00500        6.94000        5.70300
O         14.16600        4.40800        7.78300
O         14.38400        2.66800        5.73200
O         14.31800        2.75200        9.24000
O         14.52600        0.97300        7.14600
C         14.28100        3.15900        8.09800
C         14.41300        2.15800        6.90800
C         14.62900        6.65000        3.08100
H         15.56200        6.88200        3.21200
H         14.40100        6.80100        2.14900
C         13.74400        7.49000        3.98400
H         12.81200        7.37700        3.73700
H         13.97300        8.42900        3.89600
C         12.78600        4.44300        2.74900
C         12.57500        4.65400        1.39700
H         13.24500        5.03100        0.87400
C         11.38000        4.30300        0.83700
H         11.24400        4.45200       -0.07100
C         10.38900        3.74300        1.57600
H          9.59000        3.49600        1.17100
C         10.56800        3.54500        2.90600
H          9.88200        3.17800        3.41700
C         11.76300        3.88700        3.50100
H         11.88400        3.74300        4.41300
C         15.67300        3.92800        2.80600
C         16.97800        4.32000        3.01800
H         17.15900        5.08300        3.51900
C         18.02100        3.57700        2.48500
H         18.90100        3.84500        2.63100
C         17.76800        2.46700        1.76000
H         18.47400        1.96600        1.42200
C         16.50700        2.08700        1.52100
H         16.33200        1.33600        0.99800
C         15.45200        2.83100        2.07100
H         14.57600        2.55800        1.91800
C         15.49500        7.77700        6.30500
C         16.43900        7.10200        7.04700
H         16.33300        6.19400        7.21200
C         17.53600        7.76200        7.54600
H         18.15200        7.30200        8.06900
C         17.72400        9.07700        7.28100
H         18.47700        9.51100        7.60900
C         16.81200        9.76700        6.53700
H         16.94700       10.67000        6.36000
C         15.68000        9.12600        6.03700
H         15.05600        9.59800        5.53500
C         12.64300        7.56400        6.69600
C         11.52200        8.14100        6.16100
H         11.44700        8.22700        5.23800
C         10.49000        8.60100        6.98400
H          9.73400        8.98500        6.60300
C         10.57600        8.49700        8.30900
H          9.88400        8.79900        8.85100
C         11.68500        7.94500        8.85500
H         11.75400        7.88400        9.78000
C         12.72700        7.46600        8.06100
H         13.47400        7.08000        8.45600
O         13.27600        0.53300       10.68600
H         13.81700       -0.05700       11.06100
H         13.62600        1.11200       10.27500
