98
C:\Users\Javier\OneDrive - Universitat de Barcelona\Tesi\4 - Contribucions\Treballs\3-PhD\chapter_1\cif\pc2p\IHECOO.pc2p.pdb
I          7.36200        2.50700       15.09800
I          5.49200        0.77500       18.11100
Rh         5.70500        3.32100       17.12400
P          3.84000        3.87500       18.31300
C          3.77200        5.71500       18.40100
H          2.87000        6.00600       18.69000
H          4.43200        6.04700       19.05900
C          4.08400        6.27700       17.01600
H          4.26800        7.24600       17.09600
H          3.29300        6.16400       16.43500
P          5.54900        5.44100       16.22200
C          3.59600        3.25800       19.99300
C          4.29100        3.86500       21.07800
H          4.79800        4.65700       20.93800
C          4.22200        3.28600       22.36400
H          4.71100        3.68200       23.07800
C          3.44900        2.13800       22.61500
C          2.78100        1.55900       21.52400
H          2.27100        0.76600       21.65200
C          2.85200        2.13200       20.25600
H          2.36900        1.72900       19.54400
N          3.43600        1.58600       23.90000
C          4.27300        2.11700       24.95700
H          4.62900        2.98800       24.68400
H          5.01700        1.49700       25.12300
H          3.74600        2.21700       25.77500
C          2.82600        0.28000       24.10500
H          2.29900        0.04300       23.31700
H          2.23700        0.32100       24.88900
H          3.52600       -0.38500       24.25300
C          2.38500        3.38600       17.32700
C          1.13600        3.97600       17.50600
H          1.00400        4.56800       18.23900
C          0.06900        3.72500       16.64000
H         -0.77200        4.13500       16.79600
C          0.24700        2.83400       15.49900
C          1.48300        2.20600       15.35100
H          1.61900        1.59200       14.64000
C          2.53100        2.47400       16.24600
H          3.36400        2.03200       16.12600
N         -0.81900        2.60300       14.60600
C         -2.11400        3.15500       14.87100
H         -2.08700        3.66500       15.70600
H         -2.76900        2.43000       14.95100
H         -2.37300        3.74800       14.13300
C         -0.57400        1.78700       13.41700
H          0.36400        1.50700       13.40200
H         -0.77100        2.31200       12.61400
H         -1.15100        0.99500       13.44100
C          5.13300        5.51600       14.43200
C          4.01600        4.87500       13.96700
H          3.46500        4.39800       14.57500
C          3.66700        4.91400       12.59200
H          2.90500        4.43600       12.28600
C          4.44000        5.65000       11.67800
C          5.55200        6.30200       12.20300
H          6.10600        6.80600       11.62200
C          5.87100        6.23900       13.52800
H          6.63200        6.71300       13.83700
N          4.08800        5.67400       10.31700
C          2.72200        5.33300        9.92400
H          2.33700        4.71300       10.58000
H          2.72800        4.90800        9.04100
H          2.17800        6.14800        9.89000
C          4.81100        6.61300        9.43900
H          5.71000        6.77100        9.79800
H          4.32400        7.46200        9.39600
H          4.88300        6.23100        8.53900
C          7.02700        6.49500       16.40300
C          6.91700        7.89300       16.42700
H          6.05900        8.29400       16.44200
C          8.05400        8.70700       16.43200
H          7.95400        9.65200       16.46600
C          9.34500        8.14600       16.38600
C          9.45900        6.72000       16.37700
H         10.31200        6.30000       16.35000
C          8.30900        5.97400       16.40600
H          8.40000        5.02900       16.42700
N         10.49400        8.94700       16.34300
C         10.38800       10.34900       16.24200
H          9.45500       10.61700       16.38600
H         10.67300       10.63300       15.34900
H         10.95700       10.76900       16.91900
C         11.81200        8.31700       16.16400
H         11.72600        7.34700       16.27300
H         12.43600        8.66800       16.83500
H         12.15100        8.51700       15.26700
C          7.02200        3.97300       18.79600
O          6.65800        5.03000       19.25000
C          8.20400        3.18600       18.75800
H          8.98500        3.76400       18.88300
H          8.26600        2.73400       17.88900
H          8.17200        2.51600       19.47400
C          8.26000        2.72900       22.82700
H          7.86300        2.60600       21.93000
H          9.23000        2.60600       22.68200
Cl         8.21800        4.43100       22.90400
Cl         7.89400        1.22400       23.49500
