74
C:\Users\Javier\OneDrive - Universitat de Barcelona\Tesi\4 - Contribucions\Treballs\3-PhD\chapter_1\cif\pc2p\IHEKUC.pc2p.pdb
Pd         2.17400        5.39200        1.96700
S          2.57200        3.98500        0.10600
P          1.64400        6.47600        3.88200
P          4.07300        6.60200        2.06300
N         -0.59400        3.64800        2.21600
N          0.51600        4.16700        1.60500
N          0.56100        2.17100        0.33900
H          1.12400        1.59000       -0.23800
H         -0.38500        1.91900        0.73200
C          1.06400        3.31700        0.71800
C         -1.28600        4.44000        2.93700
H         -1.01700        5.44100        3.14000
C         -2.47000        3.96700        3.64200
C         -3.15000        4.78600        4.51300
H         -2.86500        5.66400        4.62800
C         -4.23700        4.33600        5.21200
H         -4.68700        4.91100        5.78800
C         -4.66400        3.04400        5.06000
H         -5.38600        2.73000        5.55400
C         -4.01600        2.22200        4.18100
H         -4.31300        1.34700        4.07000
C         -2.93300        2.66300        3.45900
H         -2.51400        2.09900        2.84900
C          3.18000        7.17400        4.55800
H          3.68300        6.42100        4.99400
H          2.92900        7.76600        5.20900
C          0.98200        5.41200        5.18300
C          0.12300        8.19000        2.33800
H          0.24100        7.57000        1.65500
C         -0.54700        9.36900        2.08000
H         -0.83400        9.56100        1.21800
C         -0.77700       10.25500        3.07900
H         -1.26300       11.03000        2.90900
C         -0.30700       10.01400        4.33000
H         -0.45700       10.63400        5.00600
C          0.38800        8.86300        4.60800
H          0.71400        8.71600        5.46600
C          3.92400        7.82600        3.41100
H          3.52500        8.52600        3.06900
H          4.74000        8.16600        3.75700
C          0.60700        7.91800        3.60800
C          1.59800        4.19900        5.38100
H          2.29600        3.94800        4.82100
C          1.20400        3.36000        6.39000
H          1.62700        2.53800        6.50000
C          0.20200        3.72800        7.21800
H         -0.04700        3.16900        7.91800
C         -0.44200        4.91900        7.02700
H         -1.14500        5.15600        7.58700
C         -0.04800        5.75800        6.02300
H         -0.48900        6.56900        5.90600
C          5.56900        5.63100        2.41800
C          6.00000        4.72500        1.45600
H          5.52100        4.62300        0.66500
C          7.14300        3.98000        1.66800
H          7.43900        3.38300        1.01900
C          7.84700        4.12500        2.83800
H          8.61000        3.61700        2.98500
C          7.42300        4.99500        3.77900
H          7.90500        5.08000        4.57000
C          6.29900        5.76600        3.58600
H          6.03200        6.37400        4.23800
C          4.49000        7.51300        0.55800
C          3.70500        7.45000       -0.52900
H          2.93700        6.92700       -0.51000
C          4.03400        8.15000       -1.69000
H          3.46700        8.11800       -2.42700
C          5.14300        8.87800       -1.74100
H          5.36600        9.33400       -2.52000
C          5.95300        8.94500       -0.66800
H          6.73000        9.45200       -0.71000
C          5.63200        8.26500        0.49600
H          6.19800        8.31600        1.23200
Cl         1.61300        7.84600        8.23200
