89
C:\Users\Javier\OneDrive - Universitat de Barcelona\Tesi\4 - Contribucions\Treballs\3-PhD\chapter_1\cif\pc2p\IHOXAF.pc2p.pdb
Ru         1.79600        3.99500       11.32600
P          3.46600        2.54600       11.93200
P          3.52300        5.44500       10.95000
S          2.33600        2.85300        5.77000
S          1.70000        0.12200        2.48800
P          9.10300        3.67200        9.33700
N          2.01300        3.20300        9.49800
C          3.56300        9.46000       11.79800
H          3.58000       10.25900       11.32400
C          1.98400        0.32400        5.67700
H          1.88700       -0.54700        5.36400
C          0.23600        5.52400       11.68200
H          0.31100        6.40500       11.39300
F         10.31800        4.16800        8.48400
C          3.82300        2.22700       13.69900
C          5.09200        4.70100       11.55300
H          5.84400        5.10500       11.09500
H          5.19000        4.87100       12.50400
C          5.08100        3.20700       11.29900
H          5.82100        2.78100       11.76200
H          5.16800        3.02600       10.35000
C          2.10400        1.99800        7.25300
O          1.27400       -0.73500       -0.20600
C          2.19900        1.39700        4.86600
C          3.35800        3.10500       14.66400
H          2.84800        3.84200       14.41600
C          3.77100        5.80000        9.18000
C          3.50300        7.07700       11.78900
F          9.56500        4.68200       10.44700
C          2.30400        1.43300        3.42300
F          8.74400        2.68000        8.18700
C         -0.34200        4.49400       10.97900
H         -0.71000        4.55700       10.12700
C          3.55700        8.28200       11.11800
H          3.58800        8.28800       10.18900
C          2.12700        0.94900        1.07200
C          1.98800       -0.99600       10.55300
H          1.16200       -1.42500       10.57600
C          2.07600        2.68600        8.48100
C          3.48000        8.30000       13.85200
H          3.44800        8.30400       14.78100
C          3.46300        7.10700       13.18100
H          3.42600        6.31000       13.65900
C          0.35600        3.65600       12.95600
H          0.53100        3.07500       13.66200
C          3.54500        9.49000       13.17000
H          3.57700       10.29800       13.62700
C          2.79800        2.42500        2.64600
H          3.17200        3.20900        2.98100
C          2.68700        2.14000        1.28000
H          2.96900        2.70900        0.60300
F          9.98400        2.58700        9.97200
N          1.82900        0.33200       -0.20500
O          2.19800        0.95300       -1.20000
C          0.69400        5.02000       12.90900
H          1.14100        5.50000       13.56900
F          8.26000        4.79600        8.64900
C          2.65600        6.19200        8.43300
H          1.83900        6.30200        8.86100
C          3.03400       -1.57900        9.90400
H          2.92800       -2.39700        9.47200
C          1.92500        0.67200        7.02400
H          1.77500        0.05500        7.70400
C          3.65000        2.88300       15.99600
H          3.33300        3.47400       16.64100
C          4.41000        0.29400       10.52300
H          5.23700        0.71900       10.49600
C          3.35400        0.88900       11.17900
C          4.84400        0.94300       15.43900
H          5.33900        0.20200       15.70500
C          2.74600        6.42100        7.08400
H          2.00100        6.71100        6.60700
C          2.14300        0.23300       11.18100
H          1.41500        0.62100       11.61200
C          3.93500        6.22300        6.44700
H          3.99100        6.35400        5.52700
C          4.58100        1.14200       14.08700
H          4.91200        0.54900       13.45200
C          4.96300        5.62000        8.52300
H          5.71700        5.35400        8.99800
F          7.91600        3.17600       10.13600
C          4.38800        1.81800       16.37500
H          4.58400        1.68200       17.27400
C          4.24200       -0.93900        9.90100
H          4.96700       -1.33600        9.47300
C          5.05000        5.83000        7.14400
H          5.85800        5.70500        6.70100
C         -0.28500        3.32400       11.76200
H         -0.61300        2.48600       11.52700
