78
C:\Users\Javier\OneDrive - Universitat de Barcelona\Tesi\4 - Contribucions\Treballs\3-PhD\chapter_1\cif\pc2p\IKENER.pc2p.pdb
Ru        17.51100        2.96400       13.87900
P         15.86400        1.57400       13.24500
P         16.59200        2.79600       15.92900
O         10.15800        8.82700       12.62000
O         11.65100       10.36100       12.77400
N         11.31400        9.17800       12.74100
C         16.17100        4.41900       13.63900
C         19.24300        1.81500       13.06600
C         19.61300        2.36200       14.28500
C         15.31600        5.27000       13.50400
C         19.58100        3.77600       14.16800
C         19.17100        4.04400       12.83700
C         18.96300        2.84700       12.18700
C         19.14200        1.08500       18.63900
C         14.69900        1.23000       14.64300
C         14.83300        2.27400       15.74300
C         14.73800        1.98200       11.86400
C         14.93400        3.09100       11.07600
C         14.02100        3.41900       10.06800
C         12.92500        2.62500        9.85700
C         12.73200        1.49800       10.60000
C         13.63400        1.17200       11.61000
C         16.48200       -0.07500       12.74300
C         16.90100       -0.99700       13.69600
C         17.49900       -2.18300       13.33200
C         17.72000       -2.45400       11.99000
C         17.33600       -1.54300       11.03900
C         16.71700       -0.36100       11.40800
C         14.30600        6.24300       13.26600
C         12.97900        5.87900       12.97400
C         12.00200        6.83300       12.81500
C         12.34400        8.16600       12.90000
C         13.62800        8.56200       13.16400
C         14.60100        7.60200       13.35000
C         16.49100        4.26500       17.01900
C         17.20800        5.41400       16.72300
C         17.19600        6.49900       17.58400
C         16.46100        6.43800       18.73300
C         15.72300        5.32400       19.04400
C         15.73500        4.23300       18.18700
C         17.34500        1.60800       17.10700
C         16.81900        0.34500       17.34200
C         17.45100       -0.53600       18.20300
C         18.61100       -0.16900       18.86200
C         18.52400        1.95500       17.77600
H         19.18700        0.88700       12.86600
H         19.85000        1.87400       15.06600
H         19.78800        4.41100       14.84300
H         19.06000        4.90900       12.45500
H         18.67800        2.74800       11.28500
H         13.80800        1.23900       14.31200
H         14.89400        0.37300       15.00300
H         14.52900        1.90500       16.56300
H         14.30200        3.03100       15.52000
H         15.69400        3.64100       11.21700
H         14.16000        4.18900        9.53000
H         12.29400        2.86100        9.18700
H         11.98500        0.93700       10.43000
H         13.49700        0.38900       12.12900
H         16.77000       -0.80600       14.61800
H         17.76100       -2.81000       13.99500
H         18.13600       -3.26700       11.73100
H         17.49600       -1.72500       10.12100
H         16.45300        0.26100       10.74100
H         12.75400        4.96100       12.88600
H         11.10500        6.57600       12.64900
H         13.84500        9.48500       13.22100
H         15.49200        7.87300       13.53900
H         17.71800        5.45700       15.92100
H         17.69500        7.28100       17.37700
H         16.46200        7.18000       19.32800
H         15.20600        5.30000       19.84100
H         15.22600        3.45900       18.40000
H         16.01500        0.08200       16.90700
H         17.08300       -1.40100       18.34400
H         19.03500       -0.77300       19.45900
H         19.93800        1.34800       19.08500
H         18.90500        2.81400       17.63100
