169
C:\Users\Javier\OneDrive - Universitat de Barcelona\Tesi\4 - Contribucions\Treballs\3-PhD\chapter_1\cif\pc2p\IQIVIQ.pc2p.pdb
Rh         3.73300       -9.06500       -4.49400
P          5.44500       -7.79200       -3.51100
P          5.44900      -10.33700       -5.47800
C          5.73000       -9.90600       -7.31700
C          5.72300       -8.22400       -1.67200
C          5.42100      -12.21000       -5.22400
C          5.42000       -5.92000       -3.76600
C          2.02600       -9.88400       -5.60400
H          2.12300      -10.43100       -6.43500
C          2.01800       -8.24800       -3.38700
H          2.11400       -7.70000       -2.55500
C          2.02300      -10.42600       -4.34000
H          2.12000      -11.40700       -4.16700
C          7.18800       -8.16200       -1.25700
H          7.70400       -8.80700       -1.78400
H          7.26700       -8.38000       -0.30500
H          7.53400       -7.25900       -1.41500
C          5.28600      -12.45500       -3.71800
H          6.11300      -12.18300       -3.26800
H          5.12300      -13.40700       -3.55600
H          4.53600      -11.93000       -3.36800
C          7.20300       -9.96600       -7.73000
H          7.71500       -9.31000       -7.21300
H          7.28300       -9.76200       -8.68600
H          7.55500      -10.86500       -7.55800
C          0.10300       -9.06400       -4.49400
H         -0.46300       -8.31800       -4.17300
H         -0.46200       -9.81000       -4.81800
C          2.02100       -7.70300       -4.64900
H          2.12000       -6.72300       -4.81900
C          6.70500       -5.25200       -3.24300
H          6.73300       -5.32000       -2.26600
H          6.71300       -4.30900       -3.50600
H          7.48600       -5.70400       -3.62500
C          1.16000       -8.61900       -5.52300
H          0.82400       -8.24100       -6.38600
C          7.02000       -9.81900       -4.64800
H          7.12800      -10.32500       -3.80400
H          7.78700      -10.03400       -5.23500
C          6.71100      -12.87700       -5.73700
H          6.74900      -12.80800       -6.71400
H          6.71500      -13.82200       -5.47600
H          7.48900      -12.42700       -5.34800
C          7.01800       -8.31200       -4.34200
H          7.12700       -7.80500       -5.18600
H          7.78600       -8.09500       -3.75500
C          4.20700      -12.86800       -5.90200
H          3.39200      -12.38500       -5.65300
H          4.13700      -13.80100       -5.60900
H          4.32000      -12.84000       -6.87500
C          5.25100       -9.67900       -1.46900
H          4.31000       -9.75700       -1.72900
H          5.35100       -9.92600       -0.52600
H          5.79500      -10.27800       -2.02300
C          4.20400       -5.25800       -3.08000
H          3.38800       -5.74600       -3.31900
H          4.12600       -4.32800       -3.37700
H          4.32400       -5.28100       -2.10700
C          5.28900       -5.67500       -5.26800
H          6.11600       -5.94500       -5.71800
H          5.12400       -4.72300       -5.43100
H          4.54000       -6.20100       -5.62000
C          1.15600       -9.50800       -3.46800
H          0.82000       -9.88400       -2.60500
C          4.88700       -7.34900       -0.73500
H          5.27200       -6.44800       -0.70100
H          4.88900       -7.73900        0.16400
H          3.96800       -7.29900       -1.06900
C          4.90400      -10.77800       -8.25500
H          5.27500      -11.68600       -8.27000
H          4.92800      -10.40100       -9.16000
H          3.97600      -10.81100       -7.94000
C          5.26600       -8.45400       -7.52600
H          4.31500       -8.37900       -7.29700
H          5.39600       -8.20100       -8.46400
H          5.78800       -7.85800       -6.95000
F          8.11600       -3.98800      -15.32800
F          3.32800      -12.15200      -17.36100
F          8.37700       -5.80600      -16.44300
F          8.13700      -14.12900      -11.63300
F          9.60400      -11.68900      -16.01600
F          8.33400      -12.31700      -10.50100
F          2.02300       -7.20400       -8.29400
F          3.36500       -6.05200       -9.49000
F          6.44600       -4.87800      -16.38100
F          2.19400      -10.94900      -18.71100
F          1.45300       -5.67000      -15.14800
F          0.15300      -11.35200      -10.48100
F          1.43400      -12.45500      -11.82600
F          1.23800      -11.83600      -16.99300
C          3.60900       -8.04400      -11.38300
H          4.07100       -7.22500      -11.51600
F          1.32400       -6.20300      -10.05100
C          3.61900      -10.08800      -15.58400
H          4.08400      -10.90500      -15.45200
F          6.42800      -13.27300      -10.61100
F          0.16200       -6.78200      -16.47500
C          7.21300      -12.17600      -12.56100
F          1.88300       -5.79800      -17.24800
C          6.25800      -11.15900      -12.46800
H          5.81200      -11.01700      -11.64100
C          5.94200      -10.34500      -13.55800
C          7.87100      -12.42500      -13.74300
H          8.50500      -13.13000      -13.80900
C          6.65200      -10.60500      -14.74000
H          6.48600      -10.06300      -15.50200
C          6.64800       -7.52400      -12.22500
H          6.48000       -8.06400      -11.46200
C          2.65400      -10.00900      -16.58800
C          7.58400      -11.61900      -14.83700
C          7.21500       -5.95300      -14.40800
C          5.94100       -7.78400      -13.40700
C          2.64300       -8.12000      -10.38000
C          3.91700       -9.13800      -12.20000
C          6.26100       -6.97000      -14.50000
H          5.81700       -7.11300      -15.32700
C          7.58100       -6.50700      -12.13000
C          3.92100       -8.98900      -14.76500
C          7.87100       -5.70100      -13.22400
H          8.50500       -4.99600      -13.15700
F          1.87800      -12.33900       -9.73100
C          7.52300       -5.13800      -15.63200
C          1.96100       -8.83700      -16.81300
H          1.31600       -8.78200      -17.50900
F          7.80600      -11.22100      -17.15100
C          3.19300       -7.82100      -15.01000
H          3.36800       -7.05300      -14.47800
C          2.21600      -10.39000      -10.97100
C          1.94900       -9.29300      -10.15400
H          1.30400       -9.34900       -9.45900
C          7.51300      -12.99200      -11.33300
C          3.18800      -10.31000      -11.95600
H          3.36800      -11.07800      -12.48500
C          2.22600       -7.74000      -16.00000
C          2.34900      -11.22500      -17.41300
F          8.16700      -13.18000      -16.49600
C          2.33100       -6.91000       -9.55500
C          8.31000      -11.86300      -16.13400
B          4.92900       -9.06400      -13.48400
C          1.45600       -6.47100      -16.20500
C          1.44500      -11.65800      -10.76200
C          8.29700       -6.26800      -10.83100
F          9.59200       -6.45500      -10.94900
F          7.77600       -6.88900       -9.80900
F          8.16200       -4.94400      -10.48100
F          9.59700       -6.06700      -10.98800
F          8.23500       -7.38000      -10.02600
F          7.87600       -5.27600      -10.17200
F          8.41400      -13.94200      -11.49900
F          7.89300      -12.28200      -10.30300
F          6.41400      -13.64500      -10.95900
F          9.59900      -12.08100      -15.97500
F          8.26000      -10.72900      -16.92600
F          7.87200      -12.84500      -16.80000
F          1.21500       -5.89300      -14.98300
F          0.34000       -6.48000      -16.80200
F          2.29200       -5.51200      -16.76300
F          8.40300       -4.16700      -15.44800
F          7.97900       -5.84500      -16.63900
F          6.41300       -4.52700      -16.04500
F          1.19900      -12.22400      -11.98900
F          2.28700      -12.63400      -10.22000
F          0.33200      -11.67300      -10.15700
F          2.71700       -7.22100       -8.32900
F          2.88300       -5.77800       -9.87000
F          1.01500       -6.76700       -9.49200
F          1.78200      -10.86200      -18.57500
F          1.48800      -12.03600      -16.83300
F          3.42700      -11.94100      -17.67800
