175
C:\Users\Javier\OneDrive - Universitat de Barcelona\Tesi\4 - Contribucions\Treballs\3-PhD\chapter_1\cif\pc2p\IQIVUC.pc2p.pdb
Rh        15.59200        7.36100       19.06400
P         14.49200        5.39900       18.82700
P         14.07400        7.89800       20.65800
C         12.73400        6.62600       20.63100
H         12.35100        6.53800       21.54000
H         12.01100        6.92800       20.02500
C         13.56300        5.24500       17.19900
C         13.24100        5.25900       20.16600
H         12.47500        4.72200       19.84000
H         13.64000        4.78100       20.93600
C         12.41700        6.25500       17.23200
H         11.82200        6.05000       17.98400
H         11.91300        6.20500       16.39300
H         12.78100        7.15800       17.34000
C         14.75700        7.89000       22.40500
C         15.10000        6.44000       22.76300
H         14.28100        5.90100       22.76200
H         15.50900        6.41100       23.65300
H         15.72800        6.08000       22.10300
C         15.57800        3.86700       19.10900
C         13.11300        9.50000       20.34900
C         14.48600        5.62900       16.03400
H         14.79200        6.55200       16.15000
H         13.99500        5.55200       15.18900
H         15.25900        5.02700       16.01800
C         16.53600        4.20900       20.26700
H         16.93700        5.09000       20.11000
H         17.24400        3.53300       20.31700
H         16.03800        4.22400       21.11100
C         12.76700        9.52600       18.84900
H         13.58500        9.39800       18.32300
H         12.36500       10.39000       18.62200
H         12.13300        8.80700       18.64700
C         14.78300        2.61800       19.50400
H         14.26400        2.80400       20.31400
H         15.40200        1.87700       19.67500
H         14.17500        2.37300       18.77500
C         16.42600        3.54200       17.87700
H         15.83800        3.29900       17.13100
H         17.02300        2.79200       18.08000
H         16.95800        4.32700       17.63000
C         16.07500        8.68200       22.44700
H         16.72800        8.25800       21.85200
H         16.42300        8.68700       23.36300
H         15.91300        9.60200       22.15300
C         13.95600       10.74300       20.67500
H         14.12700       10.77600       21.64000
H         13.47000       11.54800       20.40200
H         14.80800       10.69500       20.19400
C         12.97200        3.84900       16.97700
H         13.69700        3.21000       16.81600
H         12.37500        3.86800       16.19900
H         12.46600        3.57800       17.77100
C         11.78700        9.57600       21.12900
H         11.26200        8.76500       20.96100
H         11.27800       10.36000       20.83200
H         11.97500        9.65200       22.08700
C         13.78800        8.41200       23.46700
H         13.63500        9.37100       23.32700
H         14.17100        8.27000       24.35800
H         12.93700        7.93300       23.39700
C         17.53200        8.29700       19.07600
H         18.08100        8.17200       19.84200
C         17.63600        7.32600       17.90500
H         17.64000        7.83800       17.06000
H         16.83700        6.73900       17.90100
C         16.65900        9.34100       19.03700
H         16.10600        9.47000       18.27500
H         16.60100        9.94100       19.77200
C         18.90200        6.45100       17.97300
H         18.92800        5.97700       18.83000
H         19.69600        7.01800       17.88900
H         18.88800        5.79900       17.24000
C         18.50100        6.75400       18.19300
H         18.58200        7.45500       18.87100
H         19.26000        6.80400       17.57600
H         18.49300        5.87600       18.63000
C         16.81400        9.27700       18.23700
H         16.37600       10.06600       17.85600
H         17.77100        9.45600       18.35200
H         16.41400        9.06800       19.10700
C         17.25100        6.93700       17.44700
H         17.03700        6.24900       16.75300
C         16.63700        8.12900       17.32800
H         16.09500        8.28300       16.50000
F          5.14700        3.02600       15.91400
F          9.03500       10.39800       10.51500
F          7.11700       11.33300       10.26800
F          4.56500        1.84600       14.22800
F          3.75300        8.86500       14.95300
F          3.52700       10.50100       13.58300
F          3.67300        3.75300       14.55300
F          8.50300       12.06500       11.73900
F          4.55500       10.79000       15.43900
F          6.69700        2.41400       10.00800
F          7.39500        4.33300        9.46500
F          6.99900        9.52400       18.45900
F          9.02700        9.70600       19.04100
F          8.71500        2.93700       10.38200
F          9.55900        3.04300       17.68300
C          8.46300        6.63800       15.88700
C          7.61900        5.47700       13.61000
C         10.02300        6.80000       13.80700
C          6.41100        8.45700       14.24700
H          6.03900        7.92900       14.94300
C         10.72400        5.75500       13.20100
H         10.27600        4.93500       13.03300
C          7.65900        8.10100       13.72300
C          8.13300        8.91800       12.69100
H          8.96800        8.70900       12.28900
F          7.89200        3.37800       18.92300
C         10.77600        7.95200       14.09600
H         10.35400        8.67400       14.54600
C          6.61900        4.80900       14.32100
H          6.41900        5.10000       15.20400
C         12.06300        5.88000       12.83600
C          6.19400       10.35200       12.76700
H          5.70400       11.10000       12.44500
C          8.29400        7.72400       16.74300
H          8.13200        8.58300       16.37100
C          5.90400        3.74200       13.79800
C          8.73500        5.41200       16.51300
H          8.88600        4.64700       15.97000
C          7.42500       10.02900       12.23100
C         12.77000        7.03500       13.08800
H         13.67800        7.12000       12.82100
C          7.12600        3.93400       11.77600
C          7.82100        5.02400       12.29200
H          8.44800        5.47600       11.73900
C          5.69500        9.55900       13.78300
C          8.59100        6.36400       18.72400
H          8.61600        6.27100       19.66900
C          6.16300        3.27500       12.51500
H          5.69400        2.52900       12.15900
F          9.80800        3.98100       19.56800
C          8.79100        5.27200       17.89600
C         12.11800        8.07100       13.74400
C          8.35400        7.58900       18.13600
C          8.01700       10.94300       11.20200
C          4.83500        3.09400       14.61300
C          7.48100        3.42800       10.41000
C          4.40200        9.92900       14.43800
C         12.73500        4.72800       12.15000
C          8.99600        3.92600       18.51800
B          8.44000        6.75100       14.25100
F          7.59600        8.52300       20.20500
C         12.86900        9.31300       14.09700
C          8.11300        8.79000       18.98400
F         12.02100        4.35000       11.08200
F         13.87300        5.08200       11.59900
F         12.94800        3.74600       12.89400
F         13.71600        9.67800       13.11600
F         13.70900        9.10400       15.14500
F         12.14800       10.34800       14.40100
F         12.17300       10.41400       13.70000
F         14.01800        9.45700       13.48300
F         13.47400        5.01100       11.15900
F         13.01600        9.46700       15.37100
F         13.58300        4.09500       12.99200
F         11.93500        3.72800       11.78100
F          3.55500        8.93500       14.54400
F          3.79100       10.94300       13.88000
F          4.67400       10.30100       15.72700
F          8.99000       11.64500       11.90700
F          8.67600       10.28200       10.28700
F          7.22000       11.85300       10.76700
F          6.64600        3.99700        9.53500
F          8.65700        3.90600        9.96000
F          7.38900        2.16500       10.23600
F          6.98800        9.34300       18.88900
F          9.09600        9.70300       18.62800
F          8.53500        8.51000       20.27300
F         10.21900        3.54600       18.36100
F          8.30400        2.97200       17.90300
F          8.67400        3.81300       19.78200
