327
C:\Users\Javier\OneDrive - Universitat de Barcelona\Tesi\4 - Contribucions\Treballs\3-PhD\chapter_1\cif\pc2p\IQIWAJ.pc2p.pdb
Rh         8.58600        5.09700       14.89400
P          9.33200        5.70800       12.77200
P          7.57600        3.26500       13.88100
C          9.40900        6.89600       15.95800
H          8.48300        7.07500       15.84900
H         10.05400        7.52600       15.65800
C          9.82200        5.71300       16.55900
H         10.79500        5.48000       16.54900
C          8.88300        4.73700       17.02500
H          9.21000        3.84400       17.33400
C          7.52400        4.95100       16.87000
H          7.21300        5.74600       16.45300
H          6.90200        4.30300       17.18000
C          8.49800        4.58400       11.56400
H          7.65200        5.00400       11.26600
H          9.07900        4.47900       10.77000
C          8.19000        3.19900       12.14200
H          9.01000        2.64700       12.11000
H          7.50700        2.75900       11.57600
C          8.77300        7.43000       12.20500
C          9.69700        8.53300       12.74200
H          9.79000        8.43700       13.71300
H          9.31200        9.41000       12.53600
H         10.57800        8.45500       12.31900
C          8.68000        7.56600       10.68000
H          9.56700        7.43800       10.28500
H          8.34600        8.45900       10.45100
H          8.06500        6.88800       10.32900
C          7.37600        7.65600       12.79700
H          6.74400        7.02600       12.39300
H          7.08700        8.57400       12.61100
H          7.40500        7.51400       13.76700
C         11.18000        5.48400       12.45800
C         11.62400        5.99300       11.07900
H         11.04500        5.60900       10.38700
H         12.55200        5.72300       10.91400
H         11.55900        6.97000       11.05500
C         11.48200        3.98400       12.54400
H         11.18000        3.63900       13.41100
H         12.44700        3.83800       12.45300
H         11.01100        3.51400       11.82500
C         12.00600        6.16700       13.55400
H         11.82300        7.13000       13.54900
H         12.96000        6.01500       13.38800
H         11.76300        5.79300       14.42700
C          5.69100        3.30500       13.73400
C          5.33400        4.41600       12.74200
H          5.76100        5.25300       13.02200
H          4.36200        4.53700       12.72300
H          5.65100        4.17000       11.84800
C          5.07900        2.00300       13.21600
H          5.53400        1.73300       12.39100
H          4.12600        2.13900       13.03300
H          5.18400        1.30100       13.89200
C          5.06100        3.67300       15.07900
H          5.28500        2.98800       15.74300
H          4.08700        3.72500       14.98000
H          5.40600        4.54100       15.37500
C          8.15300        1.60400       14.58200
C          7.94400        0.42300       13.63100
H          6.98500        0.26300       13.51400
H          8.36500       -0.37800       14.00900
H          8.35000        0.62700       12.76300
C          9.66400        1.72900       14.85400
H         10.14600        1.78400       14.00200
H          9.97200        0.94500       15.35400
H          9.83600        2.53900       15.37900
C          7.45600        1.30000       15.91400
H          7.61600        2.03600       16.54200
H          7.81400        0.46800       16.28800
H          6.49200        1.20300       15.76400
C          8.13300        4.53600       17.03100
H          9.03800        4.29300       16.87100
H          7.52100        3.89100       17.36400
C          7.72500        5.78600       16.79100
H          6.81700        6.01500       16.95600
C          8.62600        6.80000       16.28500
H          8.31200        7.68000       16.12100
C          9.91500        6.48300       16.04900
H         10.22700        5.60000       16.21300
H         10.51400        7.14200       15.71500
Rh         0.73500        4.62100       22.16300
P         -1.34300        5.32500       21.38400
P         -0.35900        2.80400       23.11600
C          1.89500        6.42100       21.58300
H          1.74400        6.51400       22.51800
H          1.63900        7.11500       20.99000
C          2.46800        5.31300       21.10900
H          2.51000        5.18300       20.11800
C          2.87900        4.22400       21.97200
H          3.19000        3.36300       21.57000
C          2.67900        4.31200       23.32600
H          2.27200        5.08600       23.69700
H          2.94700        3.59900       23.89200
C         -2.09000        2.82900       22.48200
H         -2.13600        2.28800       21.65400
H         -2.68300        2.40600       23.15300
C         -2.60300        4.24000       22.18400
H         -2.89700        4.66000       23.03100
H         -3.39300        4.17500       21.59100
C         -1.63400        5.13400       19.53300
C         -0.50000        5.80500       18.73800
H         -0.53100        6.77400       18.87600
H         -0.60900        5.60700       17.78400
H          0.36400        5.45900       19.04600
C         -1.61200        3.62900       19.24700
H         -0.77500        3.24400       19.58400
H         -1.67400        3.47900       18.28000
H         -2.37100        3.19900       19.69300
C         -2.98500        5.68200       19.06100
H         -3.69800        5.32700       19.63200
H         -3.14200        5.40800       18.13400
H         -2.97800        6.66000       19.11600
C         -1.87000        7.05900       21.94800
C         -1.26400        8.15100       21.06600
H         -0.28900        8.04600       21.03900
H         -1.48700        9.03100       21.43400
H         -1.62500        8.07600       20.15800
C         -1.33600        7.23800       23.37500
H         -1.76800        6.59000       23.97000
H         -1.53100        8.14700       23.68600
H         -0.36700        7.09200       23.38200
C         -3.39300        7.25000       21.99300
H         -3.75500        7.19900       21.08400
H         -3.60100        8.12600       22.37900
H         -3.79400        6.54700       22.54500
C         -0.52900        2.80800       24.99800
C          0.83400        3.08800       25.64600
H          1.45100        2.35600       25.43900
H          0.72500        3.15800       26.61800
H          1.19500        3.92900       25.29700
C         -1.12400        1.52000       25.56700
H         -1.95300        1.30500       25.09000
H         -1.31600        1.64200       26.52000
H         -0.48300        0.78700       25.45400
C         -1.45700        3.97100       25.35700
H         -1.11500        4.79700       24.95600
H         -1.49300        4.07100       26.33100
H         -2.35600        3.78800       25.01300
C          0.28300        1.12200       22.52900
C          0.62400        1.27800       21.03800
H         -0.20400        1.36000       20.52100
H          1.12300        0.49300       20.73300
H          1.17000        2.08200       20.91100
C          1.56700        0.73400       23.26500
H          2.22200        1.45900       23.18200
H          1.93500       -0.08500       22.87100
H          1.36800        0.58100       24.21200
C         -0.74200       -0.01400       22.66800
H         -0.95000       -0.15300       23.61500
H         -0.36900       -0.83800       22.29100
H         -1.56100        0.22400       22.18500
C          1.91100        5.91200       20.65400
H          2.07000        5.01500       20.38400
H          1.60500        6.55000       20.01900
C          2.12700        6.29700       21.99300
H          1.84700        7.20600       22.29800
C          2.59200        5.32800       22.96100
H          2.63400        5.59000       23.92400
C          2.83900        4.03600       22.62200
H          2.70800        3.74700       21.72600
H          3.14400        3.42300       23.27900
F          4.47500        8.94700       11.54100
F          4.49600        7.05900       10.64400
F          2.83700        8.31800       10.33300
F          2.71600        6.71900       17.11800
F          3.29500        8.64000       16.41300
F          4.70800        7.05500       16.22200
F          2.46900        1.75300       16.23100
F          1.16000        0.04300       16.11500
F          1.09100        1.29700       17.77200
F         -4.12500        1.75500       14.54400
F         -4.28900        3.38300       15.91400
F         -3.77400        1.43300       16.63500
F         -3.27100        9.71700       15.78100
F         -1.98800        8.29300       16.72400
F         -3.99200        7.77100       16.25400
F         -1.82100        9.28400       10.16900
F         -3.40500        7.90700        9.90500
F         -3.76100        9.72800       10.94600
F          2.63600        3.45600        8.57200
F          1.94400        1.49200        8.38400
F          3.09900        2.05200       10.11500
F         -2.95500        2.96600        8.29700
F         -2.90800        1.20300        9.38900
F         -3.80400        2.84000       10.31600
C          1.27900        5.88100       13.33800
C          1.92100        6.50300       12.26400
H          1.59600        6.35000       11.38500
C          3.01900        7.33600       12.44000
C          3.52000        7.59200       13.70000
H          4.27300        8.15900       13.82100
C          2.89500        6.99500       14.78300
C          1.80000        6.15900       14.60500
H          1.39300        5.76400       15.36700
C          3.68000        7.92300       11.23100
C          3.40500        7.28400       16.15700
C         -0.46000        3.97200       14.27400
C          0.51800        3.18600       14.89300
H          1.43400        3.35800       14.70800
C          0.18600        2.16100       15.77200
C         -1.13500        1.85400       16.05000
H         -1.35900        1.14900       16.64500
C         -2.11800        2.60500       15.43400
C         -1.78400        3.64400       14.57300
H         -2.48200        4.15000       14.17300
C          1.26100        1.34200       16.42100
C         -3.56400        2.29000       15.64300
C         -1.23000        6.29000       13.15300
C         -1.65900        6.82600       14.37400
H         -1.37500        6.41100       15.18000
C         -2.48300        7.93500       14.45200
C         -2.92900        8.56900       13.29600
H         -3.50700        9.32200       13.34300
C         -2.50800        8.07000       12.08100
C         -1.67300        6.95200       12.00600
H         -1.40100        6.63300       11.15400
C         -2.92600        8.43100       15.79200
C         -2.89900        8.75200       10.80400
C         -0.16900        4.21500       11.73700
C          0.96800        3.68800       11.12000
H          1.82400        3.90200       11.47300
C          0.88800        2.86100       10.00500
C         -0.33600        2.50100        9.47000
H         -0.39200        1.93400        8.71000
C         -1.47400        2.99500       10.07900
C         -1.39000        3.83500       11.18000
H         -2.19300        4.16200       11.56800
C          2.13900        2.39400        9.34100
C         -2.81400        2.64000        9.52800
B         -0.12500        5.08400       13.12400
F         -3.54200        3.90700        9.31000
F         -2.83700        2.22800        8.35500
F         -3.57900        2.09100       10.29400
F          2.41600        2.84800        8.25000
F          2.07000        1.00800        9.17600
F          3.18600        2.47100       10.15400
F          2.16400        0.97100       15.38800
F          1.01800        0.28700       16.92100
F          1.97400        2.11400       17.16100
F         -2.18600        9.77000       10.61300
F         -2.95400        7.94900        9.78300
F         -4.18100        9.18400       10.98400
F          2.93900        8.28900       16.75200
F          4.73000        7.38200       16.32100
F          3.24600        6.13500       16.96400
F         11.01700        8.65900       20.50800
F         11.25000        7.37700       18.85100
F         10.12900        9.16200       18.63000
F          5.37000        8.99800       19.19600
F          4.57000        7.01800       19.30600
F          4.80200        8.15400       21.07800
F          5.36400        0.94400       18.53100
F          4.81200        2.93800       18.52200
F          3.53000        1.48700       19.38000
F          4.77400       -0.60400       23.67600
F          4.61400        1.10300       24.92200
F          6.49600        0.14800       24.70500
F          4.91000        7.61500       25.54600
F          4.64700        5.49100       25.74200
F          5.68000        6.62500       27.20400
F         12.99400        0.62000       23.89000
F         12.70500        2.47500       24.84600
F         11.20300        0.97800       25.00400
F         12.16900        3.10500       18.59700
F         12.58300        1.05700       19.13900
F         10.69900        1.66300       18.38000
C          8.14300        5.56700       21.09400
C          9.25300        6.25600       20.59900
H         10.12200        5.90800       20.76300
C          9.12600        7.43600       19.87400
C          7.88300        7.97600       19.60000
H          7.79700        8.77400       19.09200
C          6.76300        7.31700       20.09200
C          6.89700        6.14500       20.81900
H          6.11300        5.71700       21.14400
C         10.36600        8.16300       19.46300
C          5.39200        7.87600       19.90400
C          7.04100        3.25400       21.99200
C          6.40200        3.03100       20.76700
H          6.63700        3.57100       20.02200
C          5.43600        2.04600       20.60500
C          5.08400        1.21000       21.65800
H          4.42700        0.53300       21.54900
C          5.72500        1.39700       22.87300
C          6.67000        2.40400       23.03600
H          7.07700        2.51700       23.88700
C          4.76100        1.89100       19.27900
C          5.40100        0.50700       24.03400
C          8.17300        5.15900       23.57900
C          9.29700        5.78500       24.12000
H         10.15200        5.59400       23.75200
C          9.20600        6.67900       25.18000
C          7.98700        6.99300       25.73500
H          7.92100        7.61600       26.44900
C          6.86100        6.37700       25.22300
C          6.95200        5.47500       24.17100
H          6.16000        5.06300       23.84500
C         10.44900        7.28300       25.75900
C          5.53800        6.70000       25.81500
C          9.61900        3.46500       22.01100
C         10.12900        3.13600       20.75200
H          9.70400        3.48900       19.97800
C         11.23500        2.31300       20.59300
C         11.88600        1.77600       21.69200
H         12.65000        1.22300       21.58600
C         11.39200        2.07000       22.94600
C         10.28300        2.89700       23.10300
H          9.96800        3.08100       23.98000
C         11.74700        2.02900       19.22100
C         12.05500        1.52500       24.17300
B          8.25200        4.33600       22.16700
F         11.43700        7.33900       24.88900
F         10.30200        8.38400       26.38000
F         10.92700        6.37400       26.73500
F         11.52600        7.14500       25.01300
F         10.26600        8.68100       25.80000
F         10.70100        6.97600       26.97000
F         11.05100        2.35000       18.26500
F         12.99800        2.60600       19.10000
F         12.12100        0.77300       19.07900
F          5.57500        1.85700       18.30200
F          3.96700        2.96200       19.05100
F          3.99200        0.88200       19.17200
F          5.40100        8.25100       25.54200
F          4.54100        6.40700       25.01500
F          5.34500        6.68200       27.05100
