46
C:\Users\Javier\OneDrive - Universitat de Barcelona\Tesi\4 - Contribucions\Treballs\3-PhD\chapter_1\cif\pc2p\ISOYUK.pc2p.pdb
Pd         4.24500        2.74900        4.22600
C          3.84600        3.28700        6.23300
P          2.40400        1.48900        4.22300
C          0.81900        2.30200        4.27900
C          2.29100        0.20400        5.46700
C          2.59500        0.26500        2.88100
C          3.13300        0.93500        1.64700
P          4.52500        2.04500        2.04900
C          4.49900        3.29900        0.74600
C          5.99600        1.05600        1.67200
Se         6.33700        4.00100        4.01100
C          6.71300        4.97300        5.61800
C          7.57800        4.44700        6.57300
C          7.99400        5.20800        7.65500
C          7.57000        6.50300        7.78200
Cl         8.15000        7.45800        9.12300
C          6.66400        7.03800        6.88800
C          6.24500        6.28700        5.80200
H          2.94500        3.54300        6.37600
H          4.04700        2.55700        6.84600
H          4.42600        3.95900        6.49600
H          0.76200        3.03600        3.68600
H          0.09800        1.73300        4.20500
H          0.71900        2.74100        5.20900
H          3.06600       -0.30600        5.61400
H          2.14900        0.65200        6.42000
H          1.52800       -0.35500        5.41700
H          1.73900       -0.13800        2.67600
H          3.18500       -0.44100        3.15100
H          2.44100        1.43500        1.23700
H          3.44100        0.26600        1.03200
H          5.23100        3.91500        0.87400
H          4.65200        2.87000       -0.11600
H          3.69500        3.75700        0.72300
H          6.80800        1.56200        1.85500
H          6.03100        0.25900        2.18300
H          6.03100        0.81900        0.73600
H          7.91100        3.55400        6.47600
H          8.58500        4.84500        8.31000
H          6.34100        7.91100        7.03600
H          5.60500        6.68200        5.16400
C          1.99000        1.14200        2.31100
H          1.40300        0.37900        2.23200
H          1.51900        1.89700        1.93200
H          3.42300        0.03600        1.83800
H          2.97100        1.00100        0.71000
