179
C:\Users\Javier\OneDrive - Universitat de Barcelona\Tesi\4 - Contribucions\Treballs\3-PhD\chapter_1\cif\pc2p\IZIKAE.pc2p.pdb
Ru        10.77600       15.06500       13.62400
P          8.76500       15.29600       12.52300
P         10.19400       17.17000       14.34100
F         15.32600        5.44400       14.37500
F         17.36200        5.28400       14.99600
F         15.85600        4.15300       16.00200
F         15.84000        5.93300       20.48700
F         16.21700        8.00800       20.80100
F         14.26200        7.30400       20.48800
F         19.63700       11.77300       18.56100
F         19.48200       13.90900       18.85100
F         18.81200       12.55500       20.38700
F         15.08800       16.03700       18.90100
F         13.33900       14.89600       18.38200
F         14.56500       15.74300       16.84200
F         10.94900       10.03300       18.71600
F          9.47300        9.37300       17.38200
F         11.27300       10.36500       12.06500
F         10.52900        8.49600       12.71000
F         12.54800        8.66600       12.07000
F         15.33900       13.70200       12.09000
F         15.69800       12.17300       10.71400
F         17.20500       13.62400       11.12200
F         20.73500       10.71100       12.84100
F         20.10800        8.92400       13.84700
F         20.54400       10.69900       14.97000
F          9.74800       11.30800       17.43900
O         11.32000       17.05600        9.03700
C         11.56000       15.73400       12.12000
C         12.16600       16.35300       11.09100
C         11.67600       16.04100        9.75200
C         11.63700       14.60200        9.31600
C         10.91900       14.36200        8.14500
C         10.94800       13.14000        7.56000
C         11.70200       12.14300        8.10000
C         12.41900       12.35600        9.24300
C         12.40100       13.58200        9.84600
C         13.16700       17.48800       11.24400
C         14.43200       17.13500       11.63300
C         15.38900       18.12000       11.86700
C         15.05600       19.42800       11.70500
C         13.81800       19.78600       11.28300
C         12.87100       18.80900       11.04800
C         11.88300       13.09700       13.77100
C         10.62900       12.94900       14.39400
C         10.55600       13.80600       15.51500
C         11.78200       14.52000       15.56000
C         12.61300       14.08700       14.51000
C          8.69800       17.03500       11.96500
C          8.98300       17.95700       13.17400
C          8.44400       14.24300       11.07500
C          7.47200       14.61000       10.15600
C          7.12000       13.73300        9.12700
C          7.70300       12.49300        9.05600
C          8.67700       12.13000        9.95800
C          9.04200       13.01800       10.95700
C          7.24700       15.05500       13.49800
C          6.09900       15.82800       13.28600
C          4.96100       15.64000       14.06800
C          4.93600       14.65100       15.03200
C          6.06600       13.85400       15.20700
C          7.18700       14.07800       14.47600
C         11.53300       18.38800       14.57400
C         12.84700       18.00200       14.63700
C         13.84200       18.92000       14.97100
C         13.50400       20.20500       15.24400
C         12.17100       20.61300       15.20900
C         11.19200       19.69800       14.87700
C          9.41000       17.17200       15.98600
C          8.04100       16.99900       16.17300
C          7.51700       16.93000       17.45700
C          8.33500       17.00300       18.54300
C          9.69500       17.20500       18.37600
C         10.22700       17.27300       17.12700
C         15.70300        8.89300       16.72500
C         15.84500        7.79000       15.91400
C         15.91500        6.49000       16.39900
C         15.83000        6.25700       17.77100
C         15.67300        7.35500       18.62000
C         15.62600        8.64900       18.10900
C         16.11400        5.34400       15.46200
C         15.52600        7.13900       20.09200
C         15.75500       11.60800       17.12700
C         17.00300       11.62400       17.76300
C         17.48400       12.74100       18.45300
C         16.69600       13.86200       18.56900
C         15.45200       13.87600       17.98300
C         14.98900       12.77500       17.26300
C         18.85300       12.74800       19.05900
C         14.62500       15.11700       18.03400
C         13.80300       10.26500       15.70700
C         12.81800       10.38100       16.67900
C         11.47300       10.09300       16.42800
C         11.07000        9.72600       15.14000
C         12.02000        9.62500       14.15800
C         13.37200        9.87700       14.42500
C         10.47000       10.20600       17.51800
C         11.61200        9.27500       12.75800
C         16.33900       10.69700       14.80000
C         15.96200       11.59500       13.77700
C         16.79800       11.99200       12.76400
C         18.11800       11.54800       12.74200
C         18.52800       10.69700       13.73800
C         17.66900       10.25800       14.72200
C         16.28900       12.86400       11.68200
C         19.97200       10.26000       13.83800
C          8.25700       14.13000        0.46300
C          7.89900       13.98100        1.81200
C          8.58900       13.13900        2.65700
B         15.39300       10.38200       16.10200
H         10.40600       15.06000        7.75700
H         10.44100       12.97800        6.77100
H         11.72900       11.29300        7.67800
H         12.93200       11.65200        9.62000
H         12.91500       13.73300       10.63100
H         14.65600       16.21800       11.74100
H         16.26600       17.87800       12.13700
H         15.69900       20.10100       11.89200
H         13.60400       20.70300       11.15200
H         12.00600       19.05700       10.74500
H         12.19100       12.62600       13.00500
H          9.93800       12.36500       14.10300
H          9.82800       13.88900       16.12200
H         12.00800       15.18500       16.19800
H         13.49200       14.39400       14.32300
H          9.37400       17.18800       11.25800
H          7.80400       17.23600       11.59200
H          8.13700       18.14300       13.65300
H          9.34900       18.81900       12.85200
H          7.04500       15.45600       10.22700
H          6.47700       13.99400        8.47900
H          7.43300       11.88100        8.38100
H          9.09600       11.28100        9.89500
H          9.72000       12.77000       11.57400
H          6.09600       16.48700       12.60100
H          4.20100       16.19400       13.93800
H          4.16200       14.51700       15.56600
H          6.05100       13.15000       15.84500
H          7.95600       13.54500       14.63900
H         13.08200       17.10100       14.45300
H         14.75200       18.64700       15.00600
H         14.18200       20.83500       15.46000
H         11.93800       21.51100       15.41100
H         10.28100       19.96600       14.85700
H          7.46400       16.93000       15.42300
H          6.58100       16.83300       17.57900
H          7.97100       16.91500       19.41700
H         10.25800       17.29700       19.13800
H         11.16300       17.39000       17.02300
H         15.89700        7.92500       14.97500
H         15.87800        5.37400       18.11900
H         15.54100        9.38200       18.70600
H         17.54400       10.84500       17.72400
H         17.00900       14.61900       19.04800
H         14.13200       12.81800       16.85400
H         13.06900       10.66800       17.54900
H         10.15600        9.55100       14.94900
H         14.00900        9.78500       13.72600
H         15.08000       11.94600       13.79100
H         18.71600       11.82700       12.05900
H         17.98700        9.63800       15.36800
H          9.23100       14.29700        0.53000
H          8.18500       13.20000        0.13200
H          7.92900       14.88300        2.21900
H          6.95300       13.69300        1.83000
H          8.18600       12.24500        2.62700
H          8.54600       13.48600        3.57200
H          9.52500       13.08500        2.37200
F         10.36600       11.48600       17.98700
C          7.98700       14.72400       -0.46300
C          8.34500       14.87400       -1.81200
C          7.65500       15.71500       -2.65700
H          7.01400       14.55800       -0.53000
H          8.06000       15.65400       -0.13200
H          8.31500       13.97100       -2.21900
H          9.29100       15.16100       -1.83000
H          8.05800       16.60900       -2.62700
H          7.69800       15.36800       -3.57200
H          6.71900       15.77000       -2.37200
