93
C:\Users\Javier\OneDrive - Universitat de Barcelona\Tesi\4 - Contribucions\Treballs\3-PhD\chapter_1\cif\pc2p\JANCOR.pc2p.pdb
Ru         2.99800        4.39000        3.51100
P          4.37100        3.35000        2.01400
P          2.73300        5.84800        1.77500
C          4.12300        5.80600        6.20100
C          4.54500        5.48800        4.50200
C          2.74300        5.22800        6.67400
C          1.76500        6.36100        7.00500
H          0.92600        5.98800        7.28400
H          1.63100        6.90500        6.22500
H          2.12700        6.90000        7.71300
C          2.90600        4.35200        7.91800
H          2.04800        4.01400        8.18600
H          3.28100        4.87300        8.63000
H          3.49000        3.61700        7.71700
C          2.15800        4.36800        5.54000
C          1.13900        4.77600        4.66600
H          0.65000        5.62400        4.70600
C          0.89100        3.71200        3.77100
H          0.20400        3.70200        3.07200
C          1.72400        2.65400        4.10400
H          1.72500        1.76900        3.68200
C          2.50800        3.04300        5.19400
H          3.14400        2.47400        5.67500
C          4.20300        5.80400        0.61200
H          3.88200        5.76900       -0.30300
H          4.71400        6.62200        0.71700
C          5.10300        4.62900        0.86100
H          5.93800        4.94900        1.23700
H          5.30600        4.20500        0.01200
C          3.58100        2.08000        0.91300
C          3.18600        2.31300       -0.37700
H          3.35700        3.14000       -0.76700
C          2.53500        1.33800       -1.10600
H          2.28100        1.51200       -1.98300
C          2.26300        0.12400       -0.55500
H          1.80900       -0.52300       -1.04500
C          2.66400       -0.13600        0.72900
H          2.50900       -0.97200        1.10600
C          3.29700        0.84300        1.46000
H          3.54000        0.66800        2.34100
C          5.84700        2.35000        2.49800
C          5.96100        1.90700        3.76900
H          5.31100        2.12700        4.39500
C          7.05400        1.11700        4.14300
H          7.12700        0.82500        5.02300
C          8.00900        0.77200        3.24100
H          8.73500        0.25100        3.49700
C          7.88400        1.20700        1.94100
H          8.52800        0.97700        1.30900
C          6.80000        1.98200        1.57700
H          6.71300        2.26200        0.69500
C          1.35900        5.51300        0.57000
C          0.95500        6.50200       -0.31500
H          1.32200        7.35400       -0.25500
C          0.01300        6.22500       -1.28200
H         -0.26000        6.90200       -1.85800
C         -0.52600        4.98600       -1.41300
H         -1.15900        4.81500       -2.07300
C         -0.12400        3.99300       -0.56500
H         -0.47400        3.13600       -0.65900
C          0.81100        4.25700        0.45100
H          1.05900        3.58300        1.04300
C          2.36800        7.64200        2.11900
C          1.17200        7.90200        2.74400
H          0.57700        7.20400        2.89900
C          0.83700        9.18500        3.14600
H          0.01600        9.35200        3.54900
C          1.73200       10.20600        2.94600
H          1.53200       11.06300        3.24500
C          2.91300        9.96700        2.30800
H          3.50100       10.67000        2.15200
C          3.25800        8.67000        1.88100
H          4.06500        8.51000        1.44900
B          4.08200        7.07500        5.07300
H          3.14500        7.54300        4.73800
B          4.69600        7.31700        6.71100
H          4.17200        7.96000        7.43200
B          5.49800        5.82200        7.22300
H          5.49900        5.49000        8.27200
B          5.36000        4.69100        5.84400
H          5.25300        3.60800        6.00400
B          5.47900        6.84300        4.00400
H          5.47700        7.19300        2.96100
B          5.58100        7.99000        5.33800
H          5.63700        9.07500        5.16500
B          6.48500        7.20200        6.66700
H          7.13500        7.77100        7.34900
B          6.88100        5.53900        6.14900
H          7.78000        5.01600        6.50700
B          6.26400        5.34800        4.47700
H          6.77600        4.70200        3.74800
B          6.95000        6.89500        4.98500
H          7.90600        7.26000        4.58500
