69
C:\Users\Javier\OneDrive - Universitat de Barcelona\Tesi\4 - Contribucions\Treballs\3-PhD\chapter_1\cif\pc2p\JAQFAJ.pc2p.pdb
Ru         6.13800        3.59100        6.96400
Fe         6.39900       -1.09800        5.35800
P          4.16300        2.87200        7.87800
P          6.95800        2.94600        9.00200
Cl         8.41300       -1.36400        4.57400
Cl         4.94700       -1.75200        3.88100
Cl         6.01700       -2.08700        7.27200
N          6.22400        0.75900        5.73200
C          6.21800        1.80600        6.24200
C          6.70600        5.77600        6.98600
H          6.83000        6.34400        7.78700
C          7.70300        5.05800        6.31300
H          8.66400        5.03100        6.55200
C          7.11800        4.48000        5.17600
H          7.59700        3.97900        4.47100
C          5.75800        4.83800        5.14900
H          5.10600        4.65600        4.42700
C          5.55900        5.62300        6.27300
H          4.70100        6.06400        6.49800
C          4.58400        1.50100        9.02500
H          3.79400        1.23600        9.54100
H          4.89800        0.72100        8.51900
C          5.67400        1.99200        9.95400
H          6.09600        1.22600       10.39800
H          5.28200        2.56700       10.64400
C          3.22000        3.99200        8.98800
C          3.69500        5.23900        9.32600
H          4.49200        5.55400        8.94400
C          2.99900        6.03500       10.23500
H          3.31200        6.89800       10.44100
C          1.87100        5.56600       10.82200
H          1.41700        6.09300       11.45400
C          1.39200        4.33200       10.49400
H          0.60900        4.01300       10.90700
C          2.03600        3.55400        9.57600
H          1.67900        2.71800        9.33900
C          2.89400        2.23200        6.74400
C          1.98100        3.10900        6.17900
H          2.00800        4.02000        6.41200
C          1.03800        2.66700        5.28600
H          0.41800        3.27600        4.92800
C          0.98700        1.34700        4.90700
H          0.34400        1.05400        4.28700
C          1.89100        0.46200        5.44500
H          1.86100       -0.44500        5.20300
C          2.83900        0.90600        6.34500
H          3.46200        0.29500        6.69600
C          8.45500        1.90200        9.14000
C          9.02000        1.65800       10.39300
H          8.63000        2.04300       11.15800
C         10.14000        0.86100       10.53100
H         10.50300        0.70300       11.38500
C         10.71800        0.30500        9.43500
H         11.47700       -0.24000        9.52800
C         10.18600        0.54400        8.17700
H         10.59000        0.16000        7.42000
C          9.06400        1.34200        8.03000
H          8.71700        1.50600        7.17200
C          7.45500        4.36600       10.04600
C          8.62100        5.02100        9.69700
H          9.17000        4.66100        9.02500
C          8.99700        6.20600       10.32400
H          9.78800        6.64800       10.07000
C          8.21100        6.71800       11.30500
H          8.46100        7.51700       11.73000
C          7.07800        6.09500       11.68100
H          6.55900        6.44800       12.38000
C          6.67300        4.92900       11.03600
H          5.86000        4.52300       11.27700
