86
C:\Users\Javier\OneDrive - Universitat de Barcelona\Tesi\4 - Contribucions\Treballs\3-PhD\chapter_1\cif\pc2p\JARWIJ.pc2p.pdb
Pd         7.49900        9.18400        3.74300
P          8.96700        7.50600        4.08400
P          5.94100        7.59500        4.11400
C          8.08800        5.90300        4.08400
C          6.77300        6.11200        4.80300
C          9.68000        7.67500        5.74400
C          9.20500        8.62400        6.64300
C          9.72000        8.67700        7.92800
C         10.67700        7.78700        8.31600
C         11.17400        6.85300        7.42800
C         10.68800        6.79200        6.14100
C         10.37900        7.33300        2.97000
C         11.42800        8.24900        3.04800
C         12.52800        8.10100        2.23100
C         12.60500        7.05500        1.34400
C         11.56500        6.16200        1.25400
C         10.44700        6.28800        2.04700
C          5.21800        7.10000        2.51700
C          5.09000        5.77800        2.13100
C          4.56100        5.46100        0.89300
C          4.12900        6.46500        0.05700
C          4.23700        7.78100        0.43100
C          4.80500        8.09500        1.64200
C          4.57800        7.86600        5.28300
C          3.24500        7.75900        4.88700
C          2.25600        7.91800        5.82400
C          2.57300        8.17300        7.14000
C          3.88000        8.28600        7.53400
C          4.88800        8.14200        6.60300
N          6.26900       10.84600        3.35400
C          4.92600       11.01200        3.87100
C          3.83700       11.21100        3.02300
C          2.58300       11.44300        3.56700
C          2.37900       11.48800        4.92500
C          3.47500       11.28700        5.76100
C          4.74300       11.04300        5.24200
C          1.00400       11.72700        5.50800
C          6.67900       11.79300        2.58000
C          8.00200       12.02000        2.06100
C          8.15900       13.11300        1.17900
C          9.38200       13.48700        0.70700
C         10.51700       12.76600        1.09900
C         10.39500       11.72700        1.98400
C          9.14800       11.31100        2.49800
O          9.12600       10.32900        3.35200
B          8.58300        3.05500        0.66200
F          9.50300        3.83400        0.06900
F          8.92500        1.72400        0.57800
F          7.34200        3.21400        0.04200
F          8.43400        3.37600        2.02200
H          8.62300        5.24000        4.52500
H          7.91500        5.62900        3.17300
H          6.20200        5.34900        4.72100
H          6.95400        6.26600        5.74000
H          8.52500        9.23600        6.36600
H          9.36700        9.33000        8.54100
H         10.98300        7.82100        9.22600
H         11.88400        6.26600        7.69800
H         10.97800        6.09500        5.54400
H         11.38500        8.95600        3.70200
H         13.24100        8.75400        2.25300
H         13.39500        6.93500        0.82300
H         11.62300        5.47300        0.58800
H          9.74300        5.62900        2.03700
H          5.38100        5.06900        2.70300
H          4.49100        4.54000        0.62700
H          3.69800        6.23500       -0.76400
H          3.99600        8.49000       -0.17600
H          4.88500        9.01900        1.90000
H          3.03800        7.60400        3.95700
H          1.33400        7.88300        5.56300
H          1.85800        8.21000        7.77700
H          4.09600        8.50500        8.44300
H          5.81200        8.21000        6.83700
H          3.95300       11.18000        2.07600
H          1.83200       11.58400        2.99700
H          3.34700       11.33500        6.71900
H          5.49400       10.93100        5.83800
H          1.07000       11.72400        6.46400
H          0.68200       12.57900        5.21100
H          0.39300       11.04000        5.23000
H          6.01200       12.43900        2.35100
H          7.37600       13.59000        0.92100
H          9.46900       14.24300        0.11800
H         11.37700       12.95300        0.72500
H         11.17800       11.27300        2.29200
