71
C:\Users\Javier\OneDrive - Universitat de Barcelona\Tesi\4 - Contribucions\Treballs\3-PhD\chapter_1\cif\pc2p\JENZOS.pc2p.pdb
Pd         2.68200       19.55700        1.35800
O          2.23300       21.64400       -1.03300
O          3.99500       22.76400       -0.33900
C          1.92500       21.35300        0.31200
C          0.91000       20.41700        0.47500
H          0.44600       20.09000       -0.26200
C          0.60500       19.97900        1.74200
H          1.07100       20.31000        2.47300
H         -0.07400       19.35300        1.86600
C          3.30700       22.45600       -1.24400
C          3.47000       22.78500       -2.68700
H          2.85200       23.47800       -2.92900
H          3.29400       22.00200       -3.21500
H          4.36600       23.08500       -2.84700
P          3.02600       17.67400        2.62500
C          2.42300       16.21300        1.72100
C          1.34100       16.35800        0.84600
H          0.96400       17.20000        0.72200
C          0.82500       15.27500        0.16100
H          0.11400       15.38400       -0.42900
C          1.37700       14.03300        0.36700
H          1.03000       13.29400       -0.08000
C          2.44700       13.87200        1.23700
H          2.81800       13.02800        1.35900
C          2.96700       14.95700        1.92900
H          3.67200       14.84200        2.52300
C          2.44300       17.58600        4.31700
C          1.97400       18.75000        4.93500
H          1.94200       19.54300        4.45200
C          1.56500       18.73100        6.25700
H          1.25000       19.51400        6.64900
C          1.61300       17.57100        7.00100
H          1.30800       17.55800        7.88000
C          2.12400       16.42900        6.42400
H          2.21600       15.65400        6.93000
C          2.50000       16.43100        5.09200
H          2.80300       15.64000        4.70500
C          4.84100       17.42800        2.72300
H          5.21600       18.00200        3.40900
H          5.03700       16.50700        2.95300
C          5.45500       17.76700        1.37000
H          5.16800       17.11800        0.70800
H          6.42200       17.73200        1.43100
P          4.92900       19.45200        0.84900
C          5.98400       20.53400        1.84100
C          5.46000       21.58700        2.55300
H          4.54400       21.73800        2.49400
C          6.20900       22.44400        3.35800
H          5.81100       23.15000        3.81700
C          7.55800       22.20500        3.44900
H          8.09400       22.73500        3.99400
C          8.12000       21.16800        2.72400
H          9.03900       21.03000        2.78000
C          7.36300       20.31800        1.91000
H          7.76400       19.62900        1.43100
C          5.46600       19.58700       -0.86700
C          4.95100       18.68700       -1.79000
H          4.37700       18.02300       -1.48100
C          5.24300       18.71400       -3.14600
H          4.92100       18.06100       -3.72300
C          6.03700       19.75900       -3.60500
H          6.20800       19.84500       -4.51500
C          6.57800       20.67800       -2.71100
H          7.14900       21.34200       -3.02400
C          6.27200       20.61300       -1.35300
H          6.60800       21.25400       -0.77000
B          7.04200        7.38800        0.55500
F          5.92000        8.06300        0.77700
F          8.02000        7.73800        1.36400
F          6.83300        6.08400        0.76100
F          7.40100        7.46200       -0.70500
