84
C:\Users\Javier\OneDrive - Universitat de Barcelona\Tesi\4 - Contribucions\Treballs\3-PhD\chapter_1\cif\pc2p\JERDAM.pc2p.pdb
Pd         1.01800        7.85400        0.86500
P         -1.23500        8.22100        0.94800
P          0.63500        6.08700        2.29100
C          1.50300        9.37600       -0.58600
H          1.54000        9.08700       -1.53400
H          1.07800       10.26000       -0.45900
C          2.62400        9.11500        0.17900
H          3.07900        9.84700        0.57500
C          3.10300        7.86400        0.39400
H          3.72700        7.75600        1.15400
H          3.37400        7.35300       -0.41000
C         -1.97800        6.68000        1.60800
H         -2.91000        6.84800        1.89700
H         -1.99000        5.98100        0.90700
C         -1.12800        6.21300        2.80800
H         -1.44900        5.33200        3.12500
H         -1.21400        6.86000        3.55200
C         -2.22100        8.65300       -0.51300
C         -3.24000        7.84400       -0.97800
H         -3.45300        7.04200       -0.51600
C         -3.95700        8.19800       -2.11400
H         -4.65600        7.63500       -2.42700
C         -3.65400        9.36800       -2.79600
H         -4.14400        9.60600       -3.57400
C         -2.64000       10.18600       -2.33900
H         -2.43000       10.98700       -2.80500
C         -1.92700        9.83900       -1.19800
H         -1.23600       10.40900       -0.88100
C         -1.62100        9.49300        2.19700
C         -0.60100        9.96700        3.02100
H          0.28100        9.62900        2.92400
C         -0.87000       10.93300        3.98200
H         -0.16800       11.26900        4.52600
C         -2.15800       11.40400        4.14500
H         -2.34800       12.05100        4.81400
C         -3.17800       10.92600        3.32900
H         -4.06200       11.25500        3.43500
C         -2.90900        9.97100        2.35900
H         -3.61000        9.64600        1.80600
C          1.55300        5.90700        3.85100
C          2.77900        6.51900        3.98300
H          3.13000        7.04500        3.27600
C          3.50200        6.36000        5.17000
H          4.34100        6.79300        5.26900
C          3.01800        5.59100        6.18600
H          3.52800        5.47600        6.97800
C          1.79800        4.98700        6.06400
H          1.46300        4.45900        6.77900
C          1.04000        5.13700        4.90200
H          0.18900        4.72300        4.82500
C          0.79600        4.45800        1.49800
C          0.25400        3.30900        2.06100
H         -0.25100        3.36700        2.86300
C          0.45300        2.07200        1.45000
H          0.07700        1.28700        1.83100
C          1.20200        1.98600        0.28500
H          1.33900        1.14200       -0.12700
C          1.74300        3.12000       -0.27500
H          2.25500        3.05900       -1.07300
C          1.53900        4.36200        0.33200
H          1.91200        5.14400       -0.05600
S         -3.44900        3.25100        5.24200
S         -1.68700        2.36100        7.20600
F         -4.16700        1.09700        3.92700
F         -3.45700        2.71800        2.70600
F         -2.07200        1.52500        3.81700
F         -2.83600        3.32400        9.31200
F         -2.11500        4.80800        7.95700
F         -0.77900        3.71700        9.20000
O         -4.85000        3.53500        5.25200
O         -2.55100        4.31200        4.92400
O         -0.59300        2.78900        6.41000
O         -1.57800        1.14500        7.92900
N         -3.09400        2.38600        6.49000
C         -3.27400        2.08000        3.86500
C         -1.90800        3.63900        8.50100
C          1.69000        9.51400       -0.34600
H          1.17900        9.69100       -1.17500
H          1.94600       10.33800        0.14100
C          2.65400        8.51100       -0.41500
H          2.88200        8.11100       -1.24500
C          3.27700        8.10900        0.76900
H          3.67200        8.82200        1.33100
H          3.82000        7.28200        0.73000
