48
C:\Users\Javier\OneDrive - Universitat de Barcelona\Tesi\4 - Contribucions\Treballs\3-PhD\chapter_1\cif\pc2p\JESBAK.pc2p.pdb
Rh         8.54200        1.78400        5.78000
Cl         6.90000        3.53600        6.04300
P         10.00600        0.14000        5.92800
P          9.88200        2.77800        7.30500
O          9.52700        2.81200        4.17100
O          7.25600        0.94400        4.35800
N          8.11000       -0.50400        7.69900
N          8.85400        2.07900        9.63200
C          7.45900        0.73300        7.12800
C          9.33300       -0.88400        7.30100
C          9.96000       -1.94300        7.90000
C          9.27800       -2.66800        8.87000
C          7.99500       -2.30900        9.20600
C          7.42800       -1.19400        8.62300
C         10.36000       -0.99200        4.55400
C          9.86300       -0.69100        3.32700
C         10.12100       -1.50200        2.23800
C         10.85100       -2.64200        2.39500
C         11.35400       -2.95500        3.61900
C         11.13300       -2.12600        4.70300
C         11.59800        0.73100        6.59200
C         11.25800        1.65600        7.75100
C          9.18100        3.18500        8.94200
C          9.02300        4.46800        9.44300
C          8.52500        4.61600       10.71200
C          8.17900        3.50000       11.44200
C          8.35500        2.25100       10.85600
C         10.63700        4.27800        6.62400
C          9.84800        5.38300        6.33300
C         10.40500        6.50600        5.77100
C         11.72900        6.53600        5.44200
C         12.52400        5.45200        5.69400
C         11.98800        4.31300        6.30300
C          9.07500        2.89000        2.99600
C          7.85100        2.36400        2.55600
C          7.03700        1.45200        3.21100
C         10.00600        3.55400        1.96800
C          9.26000        4.51500        1.05200
C         10.56400        2.43100        1.08700
C         11.16000        4.24700        2.65800
C          5.77600        0.89100        2.52300
C          5.34500        1.67500        1.30300
C          4.64900        0.87900        3.55400
C          6.06300       -0.56900        2.13800
Cl         8.63800        8.10300        9.24500
Cl         5.32200        2.94100        9.21400
Cl         2.98500        3.31300       10.90100
C          4.45700        2.37100       10.63300
