163
C:\Users\Javier\OneDrive - Universitat de Barcelona\Tesi\4 - Contribucions\Treballs\3-PhD\chapter_1\cif\pc2p\JIBZAY.pc2p.pdb
Ru         9.11000       14.26700       11.26400
C         10.56100       15.39800       11.49600
C         11.58600       16.13600       11.85700
C         12.96000       15.53200       11.94700
C         13.42400       15.07300       13.19800
C         14.70900       14.51700       13.26600
H         15.04400       14.21300       14.10100
C         15.49500       14.40500       12.13000
H         16.36100       14.01800       12.19100
C         15.02600       14.85600       10.90400
H         15.56700       14.77800       10.12700
C         13.76300       15.42000       10.82000
H         13.44400       15.73400        9.98300
C         12.55600       15.15100       14.39000
H         11.93300       15.86700       14.42700
C         12.57300       14.31000       15.41300
H         13.18100       13.58000       15.41800
H         11.97700       14.43600       16.14200
C         11.37800       17.53600       12.34600
C         10.25600       17.85400       13.10400
H          9.61400       17.18100       13.29800
C         10.06400       19.14400       13.58000
H          9.30300       19.34800       14.11100
C         10.98600       20.13500       13.27900
H         10.84300       21.02400       13.58000
C         12.11100       19.82500       12.54100
H         12.74900       20.50200       12.34600
C         12.31700       18.52900       12.08200
H         13.10200       18.32100       11.58700
C          9.18300       13.59700       13.41200
H          9.92700       13.79400       13.97000
C          9.03500       12.44700       12.58600
H          9.67100       11.74800       12.48300
C          7.77400       12.52800       11.94300
H          7.41000       11.88900       11.34200
C          7.15700       13.72500       12.35500
H          6.30300       14.03500       12.07800
C          8.03400       14.38800       13.25600
H          7.87000       15.22300       13.67900
P         10.12900       13.41400        9.41300
C         10.45200       14.80000        8.25500
H         11.25700       15.29200        8.55500
H         10.63700       14.43400        7.35400
C          9.27300       15.76800        8.17200
H          8.71400       15.53300        7.38900
H          9.61500       16.68700        8.03700
P          8.22400       15.72400        9.71100
C         11.72500       12.56200        9.56000
C         12.34600       12.33400       10.78500
H         11.94600       12.64200       11.59000
C         13.55600       11.65300       10.82000
H         13.97900       11.48800       11.65500
C         14.14900       11.21400        9.65200
H         14.97600       10.74800        9.68700
C         13.53900       11.45000        8.43000
H         13.95300       11.15500        7.62700
C         12.33500       12.11300        8.38200
H         11.91400       12.26700        7.54500
C          9.16400       12.17600        8.48900
C          8.52600       12.46000        7.28300
H          8.59700       13.32800        6.90400
C          7.79100       11.47900        6.63300
H          7.36300       11.67700        5.80800
C          7.67700       10.21700        7.18000
H          7.16800        9.55100        6.73400
C          8.30500        9.91900        8.38300
H          8.22700        9.05100        8.75900
C          9.04900       10.89400        9.03500
H          9.48100       10.68900        9.85600
C          8.05700       17.46800       10.23700
C          6.92500       17.86400       10.93400
H          6.23600       17.23400       11.10700
C          6.78800       19.16800       11.38000
H          6.01000       19.42400       11.86100
C          7.77900       20.09800       11.13000
H          7.67900       20.99700       11.42200
C          8.91300       19.71000       10.45200
H          9.60100       20.34400       10.28500
C          9.06400       18.40100       10.00800
H          9.85400       18.14400        9.54800
C          6.56800       15.33900        9.02200
C          5.97100       14.10600        9.16900
H          6.39100       13.44100        9.70100
C          4.76200       13.82700        8.54900
H          4.35800       12.97600        8.66500
C          4.14200       14.77800        7.76500
H          3.30500       14.59000        7.35600
C          4.74200       16.00100        7.58200
H          4.33300       16.65000        7.02300
C          5.94000       16.29000        8.20700
H          6.34100       17.14200        8.08300
B          9.51700       10.69100       17.49800
C          8.57600       10.42300       16.17100
C          7.27700       10.94300       16.12900
H          7.00600       11.53700       16.81900
C          6.36500       10.63100       15.12800
C          6.71800        9.76500       14.10400
H          6.10200        9.54700       13.41500
C          7.99200        9.22700       14.11600
C          8.90100        9.53900       15.12600
H          9.76400        9.14200       15.10800
C          4.99900       11.23500       15.14600
F          4.55900       11.46600       16.39600
F          4.95800       12.42100       14.51600
F          4.07400       10.46100       14.56500
C          8.39400        8.33800       12.97400
F          7.38200        7.56300       12.54200
F          8.78100        9.04900       11.89900
F          9.39300        7.51100       13.26800
C         11.10000       10.32100       17.31400
C         11.79400       10.50300       16.11000
H         11.33700       10.87800       15.36600
C         13.13800       10.14800       15.96800
C         13.86300        9.66200       17.04500
H         14.77600        9.41900       16.95000
C         13.21300        9.54100       18.27300
C         11.86900        9.84900       18.38900
H         11.44900        9.73700       19.23300
C         13.81400       10.29600       14.63800
F         14.36000       11.49600       14.45700
F         12.97300       10.08900       13.61900
F         14.80500        9.41200       14.45600
C         14.00100        9.07800       19.45700
F         13.25600        8.67600       20.46900
F         14.87100        9.99900       19.88300
F         14.78300        8.00500       19.18000
C          8.84500        9.69600       18.63200
C          9.08600        8.31300       18.60300
H          9.65800        7.96100       17.93100
C          8.51500        7.44000       19.52500
C          7.67100        7.91900       20.53100
H          7.29200        7.32900       21.17200
C          7.40300        9.26800       20.56600
C          7.96800       10.13800       19.62400
H          7.74700       11.06100       19.66100
C          8.78800        5.97300       19.48700
F          9.81800        5.63700       18.71000
F          9.05600        5.48600       20.71900
F          7.72300        5.26400       19.04500
C          6.50300        9.83700       21.60600
F          6.42700        9.07400       22.71000
F          5.23300        9.96700       21.17800
F          6.89600       11.04700       22.00600
C          9.46200       12.26400       18.00400
C          9.85300       12.58800       19.31800
H         10.16100       11.89000       19.88400
C          9.80700       13.87700       19.82300
C          9.38900       14.93800       19.02800
H          9.36000       15.82500       19.36800
C          9.01400       14.66000       17.72000
C          9.05900       13.35100       17.22400
H          8.80400       13.19600       16.32200
C         10.10800       14.11600       21.27100
F         11.02700       13.28200       21.75600
F          9.02500       13.93100       22.04200
F         10.53700       15.35200       21.52900
C          8.51200       15.76000       16.83800
F          8.28600       16.90300       17.50300
F          9.35800       16.05300       15.83800
F          7.34300       15.44000       16.24500
F         13.53500        9.74100       20.56900
F         15.16900        9.60400       19.56800
F         14.11400        7.96900       19.63800
