107
C:\Users\Javier\OneDrive - Universitat de Barcelona\Tesi\4 - Contribucions\Treballs\3-PhD\chapter_1\cif\pc2p\JINJEW.pc2p.pdb
Ru        -3.39000       -0.10400       -4.49800
H         -3.51600       -0.54200       -2.99100
P         -3.38900       -2.32400       -4.81800
P         -5.63300       -0.35400       -4.37300
O         -1.42200        0.28500       -7.21600
C         -1.20600        0.34300       -4.73400
H         -0.56200       -0.34600       -4.61900
C         -1.81100        0.72700       -5.96600
C         -2.77300        1.76100       -5.74900
C         -2.71400        2.07500       -4.30300
C         -1.73700        1.17600       -3.69500
C         -0.39100       -0.72500       -7.23500
H          0.40700       -0.38700       -6.77700
H         -0.16800       -0.94600       -8.16200
H         -0.71400       -1.53000       -6.77700
C         -3.44300        2.45300       -6.96000
C         -2.34400        3.21600       -7.75500
H         -1.90000        3.85800       -7.16400
H         -2.75600        3.69400       -8.50500
H         -1.68600        2.57700       -8.09700
C         -4.08600        1.41900       -7.90900
H         -3.39200        0.82000       -8.25600
H         -4.52000        1.88500       -8.65400
H         -4.75400        0.89600       -7.41700
C         -4.53700        3.46100       -6.59300
H         -5.18600        3.03400       -5.99500
H         -4.99300        3.76000       -7.40800
H         -4.13400        4.23100       -6.14300
C         -3.51500        3.18000       -3.59300
H         -3.73900        2.84100       -2.69000
H         -4.37100        3.27900       -4.08000
C         -2.91600        4.63400       -3.40800
C         -1.75700        4.93500       -4.36400
H         -1.36900        5.80700       -4.14300
H         -2.08900        4.94900       -5.28600
H         -1.07100        4.24000       -4.27400
C         -4.04100        5.67200       -3.64400
H         -3.70300        6.57000       -3.44000
H         -4.80100        5.46900       -3.06300
H         -4.32600        5.63700       -4.58100
C         -2.44600        4.86500       -1.96000
H         -1.68700        4.27600       -1.76600
H         -3.18000        4.66500       -1.34100
H         -2.17100        5.79800       -1.85000
C         -1.13200        1.08500       -2.27600
C         -2.12400        1.37400       -1.13100
H         -2.49000        2.27700       -1.23600
H         -1.65800        1.30800       -0.27200
H         -2.85400        0.72000       -1.15800
C         -0.57000       -0.32800       -2.01000
H         -0.22700       -0.37500       -1.09100
H          0.15800       -0.51300       -2.64000
H         -1.28200       -0.99000       -2.12800
C          0.06000        2.07200       -2.20000
H         -0.24800        2.97600       -2.41900
H          0.75200        1.79900       -2.84000
H          0.43400        2.06400       -1.29500
C         -3.06600       -3.13300       -6.46100
C         -2.60700       -4.45500       -6.58500
H         -2.36900       -4.94900       -5.81000
C         -2.50100       -5.04400       -7.85000
H         -2.17600       -5.93200       -7.93600
C         -2.87100       -4.32600       -8.98300
H         -2.79800       -4.72300       -9.84200
C         -3.34800       -3.01800       -8.85600
H         -3.61500       -2.53000       -9.62500
C         -3.43000       -2.43500       -7.60000
H         -3.74100       -1.54000       -7.52200
C         -2.20200       -3.19100       -3.70900
C         -2.56600       -3.50000       -2.39600
H         -3.47700       -3.41500       -2.13700
C         -1.63200       -3.92700       -1.45100
H         -1.90500       -4.13000       -0.56400
C         -0.29000       -4.05600       -1.82100
H          0.35600       -4.34100       -1.18500
C          0.09300       -3.76200       -3.12800
H          1.00200       -3.85900       -3.38500
C         -0.84400       -3.33100       -4.05700
H         -0.56600       -3.12500       -4.94100
C         -5.03100       -3.13300       -4.42300
H         -5.42900       -3.50000       -5.25200
H         -4.88900       -3.88100       -3.79100
C         -5.99100       -2.10300       -3.80000
H         -5.91300       -2.14300       -2.81300
H         -6.92100       -2.33900       -4.04000
C         -6.63100        0.50700       -3.08200
C         -8.04400        0.46400       -3.09000
H         -8.50800        0.07400       -3.82100
C         -8.76000        1.00200       -2.00400
H         -9.70800        0.97900       -2.01500
C         -8.11300        1.55600       -0.93500
H         -8.60900        1.91100       -0.20800
C         -6.71700        1.59300       -0.92400
H         -6.25800        1.97300       -0.18300
C         -5.99300        1.07400       -1.99600
H         -5.04400        1.10900       -1.97700
C         -6.71700       -0.17400       -5.85700
C         -6.89300       -1.22200       -6.77000
H         -6.53700       -2.07900       -6.56600
C         -7.57300       -1.03600       -7.95800
H         -7.68200       -1.76000       -8.56200
C         -8.09800        0.21800       -8.27300
H         -8.55600        0.35200       -9.09400
C         -7.94900        1.27700       -7.37200
H         -8.31000        2.13200       -7.57400
C         -7.26600        1.06500       -6.17900
H         -7.17300        1.78500       -5.56600
