152
C:\Users\Javier\OneDrive - Universitat de Barcelona\Tesi\4 - Contribucions\Treballs\3-PhD\chapter_1\cif\pc2p\JOFNAU.pc2p.pdb
Ru        24.55700        8.47500        2.90600
S         25.35200        6.17500        2.99600
P         26.67200        9.24800        3.26000
P         24.53100        8.28900        5.16700
C         26.95800        9.48600        5.06200
H         27.92800        9.47900        5.25800
H         26.58600       10.35500        5.35500
C         26.27000        8.35300        5.79800
H         26.27800        8.51900        6.77300
H         26.73100        7.49600        5.62100
C         28.11100        8.25600        2.71600
C         29.37500        8.37100        3.29500
H         29.50200        8.95200        4.03600
C         30.45000        7.64900        2.80400
H         31.30600        7.73700        3.20600
C         30.28100        6.80100        1.72800
H         31.01300        6.28500        1.41500
C         29.03900        6.69800        1.10000
H         28.93200        6.14000        0.33900
C         27.97100        7.41900        1.59700
H         27.12500        7.34800        1.17300
C         27.09700       10.87500        2.52100
C         26.39100       12.01400        2.93200
H         25.71700       11.93900        3.60100
C         26.66900       13.25000        2.37200
H         26.18700       14.01800        2.65700
C         27.64100       13.37100        1.40200
H         27.81500       14.21700        1.00700
C         28.36000       12.26500        1.00500
H         29.04000       12.35200        0.34600
C         28.09400       11.02300        1.56400
H         28.60000       10.26500        1.29000
C         23.79000        6.82300        5.94900
C         24.46900        5.97000        6.82400
H         25.39300        6.10400        6.99300
C         23.79400        4.92000        7.44700
H         24.26400        4.32800        8.02300
C         22.45900        4.74700        7.23100
H         22.00200        4.05000        7.68600
C         21.76400        5.56100        6.36700
H         20.83600        5.42700        6.22000
C         22.44300        6.58300        5.71400
H         21.97500        7.12700        5.09200
C         23.75300        9.58400        6.21700
C         23.59100        9.37300        7.59400
H         23.85600        8.54400        7.97400
C         23.04900       10.35300        8.40800
H         22.96000       10.20100        9.34300
C         22.64000       11.55700        7.85700
H         22.25600       12.22500        8.41200
C         22.78600       11.78400        6.50900
H         22.49900       12.60700        6.13300
C         23.35900       10.80900        5.69500
H         23.47700       10.98400        4.77000
C         23.67300        8.32600        0.85300
H         23.93200        7.66700        0.22000
C         22.62600        8.18600        1.83800
H         22.08700        7.41800        1.98500
C         22.56000        9.39900        2.53000
H         21.93700        9.60800        3.21700
C         23.57000       10.26700        2.04800
H         23.76600       11.13900        2.37000
C         24.24200        9.58900        0.98900
H         24.95500        9.93800        0.46500
S         23.08400        4.80500        1.48600
C         22.22900        3.52500        2.18200
H         21.55500        3.05200        1.71100
C         22.56500        3.22000        3.44300
H         22.18100        2.52900        3.96800
C         23.59700        4.11400        3.86100
H         23.98700        4.06900        4.72700
C         23.99600        5.04700        2.92500
C         23.06000        4.95300        1.73200
H         23.03300        5.55600        1.00000
C         22.08900        3.87100        1.88000
H         21.38700        3.63000        1.29600
C         22.41900        3.29900        3.07200
H         21.89800        2.58300        3.40500
S         23.74900        3.85700        3.94700
C         24.02200        5.04600        2.74100
Ru        17.21700        6.23900        3.12500
P         17.16100        6.35400        5.38200
P         15.11000        5.38900        3.38000
S         16.40400        8.52500        3.24400
S         18.30100       10.01800        1.37600
C         15.40800        6.29900        5.96500
H         15.37300        6.11500        6.93700
H         14.96100        7.16600        5.79200
C         14.72100        5.17800        5.18300
H         13.74100        5.22000        5.32500
H         15.04400        4.29800        5.50000
C         17.96100        5.00400        6.37300
C         18.28700        5.17300        7.74000
H         18.06000        5.98800        8.17200
C         18.91600        4.21400        8.44000
H         19.14100        4.36600        9.35000
C         19.22800        3.01100        7.84600
H         19.66300        2.33300        8.35000
C         18.91400        2.78200        6.51500
H         19.12700        1.95000        6.11100
C         18.28400        3.78900        5.77200
H         18.07600        3.64200        4.85600
C         17.91500        7.81500        6.20200
C         17.27700        8.54900        7.19400
H         16.36900        8.37000        7.40800
C         17.96800        9.54300        7.87600
H         17.53300       10.04500        8.55500
C         19.29800        9.80400        7.56500
H         19.76900       10.48400        8.03200
C         19.93500        9.07100        6.57200
H         20.84500        9.24900        6.35800
C         19.24400        8.07600        5.88900
H         19.68100        7.57400        5.21100
C         14.86500        3.71000        2.70200
C         15.39200        2.59700        3.32500
H         15.85900        2.70700        4.14400
C         15.25700        1.33200        2.80200
H         15.60800        0.58400        3.26900
C         14.61200        1.14900        1.60100
H         14.52200        0.27700        1.23400
C         14.10000        2.23200        0.93800
H         13.66100        2.10400        0.10600
C         14.21100        3.50700        1.46300
H         13.85000        4.24800        0.99000
C         13.62600        6.26000        2.70900
C         12.34000        5.89400        3.09100
H         12.21200        5.18100        3.70500
C         11.24800        6.57000        2.57500
H         10.37300        6.33200        2.85000
C         11.43000        7.59300        1.65700
H         10.67800        8.06100        1.31300
C         12.69200        7.93200        1.24400
H         12.81600        8.61400        0.59400
C         13.79300        7.27100        1.78000
H         14.66800        7.51700        1.50600
C         18.29300        4.50200        2.26200
H         18.10700        3.60700        2.52100
C         17.67500        5.22000        1.19500
H         17.00500        4.88000        0.61400
C         18.21700        6.50000        1.14500
H         17.98400        7.18100        0.52500
C         19.18600        6.61100        2.19300
H         19.70000        7.38300        2.40000
C         19.24000        5.37000        2.86400
H         19.81200        5.15400        3.59100
C         19.31300       11.28100        1.90100
H         19.85300       11.81600        1.33100
C         19.23900       11.41700        3.22700
H         19.73500       12.06900        3.70700
C         18.34700       10.50000        3.86900
H         18.18300       10.49100        4.80500
C         17.75900        9.63800        2.98800
