167
C:\Users\Javier\OneDrive - Universitat de Barcelona\Tesi\4 - Contribucions\Treballs\3-PhD\chapter_1\cif\pc2p\JUBBIT.pc2p.pdb
F         19.02700        7.70100        7.42600
F         19.81500        9.44600        6.57100
F         19.55300        9.28700        8.69300
F         16.18400       13.40600        8.61000
F         15.81400       12.05900       10.17300
F         14.24600       12.53600        8.83400
F         14.32900       14.27100        1.10700
F         14.74100       14.64200        3.11500
F         12.95900       13.71500        2.53700
F         18.91800       11.46100        1.36200
F         18.30700        9.40400        1.09500
F         17.70000       10.92800       -0.26900
F         15.58700        6.09900        0.48100
F         14.65200        4.22200        1.01600
F         13.48800        5.98700        0.69500
F         16.72400        4.56200        6.55300
F         15.57900        3.08500        5.57100
F         14.70300        4.36900        7.02800
C         15.54700        9.67800        6.08100
C         16.82200        9.14400        6.31900
C         17.63300        9.58900        7.36100
C         17.20200       10.58800        8.23000
C         15.94900       11.14100        8.00400
C         15.14500       10.71000        6.96300
C         19.01300        9.02900        7.52500
C         15.52000       12.27600        8.88900
C         13.02700        9.30300        5.09700
C         12.52900        8.94600        6.35100
C         11.14700        8.86700        6.58800
C         10.22500        9.16200        5.60800
C         10.69900        9.52400        4.36700
C         12.08100        9.59000        4.10100
C         10.66900        8.50400        7.96100
C          9.75300        9.84900        3.25000
C         15.09100       10.28700        3.60000
C         14.46400       11.51800        3.38800
C         14.91300       12.42600        2.44000
C         16.01700       12.15000        1.64600
C         16.67300       10.94600        1.85000
C         16.22000       10.03100        2.79200
C         14.24000       13.75800        2.29100
C         17.89300       10.67400        1.03200
C         14.86700        7.67400        4.34900
C         14.68600        7.24400        3.03800
C         14.76800        5.90700        2.68700
C         15.05900        4.92200        3.62400
C         15.22400        5.32300        4.93300
C         15.12500        6.67100        5.29100
C         14.65300        5.53000        1.22800
C         15.54600        4.33400        5.99800
B         14.63900        9.24200        4.78600
H         17.14200        8.48100        5.75500
H         17.74400       10.87500        8.93900
H         14.31600       11.11100        6.83600
H         13.13000        8.73800        7.05000
H          9.30800        9.10200        5.77600
H         12.37600        9.81900        3.23600
H         13.73000       11.74500        3.91100
H         16.30600       12.76000        1.00000
H         16.68100        9.23700        2.91100
H         14.49700        7.87300        2.36800
H         15.13500        4.02000        3.38400
H         15.24200        6.90400        6.19200
F         10.16400       10.87000        2.51300
F          9.58300        8.83000        2.40400
F          8.54000       10.17300        3.68100
F         10.71400        9.53300        8.80400
F         11.40600        7.52600        8.51900
F          9.41200        8.07200        7.96300
F          9.80300       11.13200        2.88900
F          9.99900        9.15200        2.15100
F          8.49000        9.60900        3.56100
F         10.26800        9.56900        8.66000
F         11.61200        7.91200        8.68700
F          9.63100        7.66300        7.93300
C         15.87200       11.62800       14.06200
C         16.75700       10.82700       13.36100
C         18.04600       10.76700       14.19700
C         17.61800        9.99100       15.45000
C         16.74400       10.79200       16.14500
C         16.59800       12.07600       15.33900
C         18.03300       12.20100       14.77300
C         14.13500        8.75400       17.73300
C         13.28100        9.99100       17.46400
C         12.96500       10.70400       18.78700
C         12.23900        9.76900       19.75100
C         13.03500        8.49000       19.98900
C         13.39800        7.78900       18.66200
C         15.87200        6.60100       16.72500
C         16.86300        7.08700       17.77100
C         17.92000        6.03500       18.11000
C         18.62100        5.53500       16.87000
C         17.63900        4.96100       15.89200
C         16.58200        5.99200       15.50000
C         13.28700        7.11900       15.42600
C         13.40700        7.05400       13.88600
C         12.68000        9.64600       12.70300
C         13.10200       10.74100       11.71500
C         11.97500       11.72000       11.42000
C         11.43200       12.33300       12.70000
C         10.90400       11.23900       13.60500
C         12.01200       10.23800       13.96300
C         14.97600        8.17000       11.65400
C         16.27100        7.38400       11.90700
C         17.05600        7.19200       10.59800
C         16.17800        6.46600        9.56300
C         14.88000        7.22500        9.31500
C         14.09900        7.43900       10.62600
P         14.75100        7.96600       16.17800
P         14.13100        8.61700       13.21700
Rh        15.58000        9.53600       14.72500
H         15.16300       12.14200       13.62400
H         16.72600       10.74600       12.39100
H         18.85600       10.47200       13.73300
H         18.18500        9.31800       15.87600
H         16.63700       10.74200       17.12000
H         16.22200       12.85800       15.81300
H         18.70200       12.34500       15.47600
H         18.11000       12.88800       14.08000
H         14.93500        9.05700       18.22100
H         13.75700       10.59800       16.88600
H         12.46000        9.71500       17.02100
H         13.79100       10.99600       19.19700
H         12.40200       11.46600       18.60300
H         12.10200       10.21600       20.59900
H         11.38700        9.53000       19.36100
H         13.85800        8.72200       20.45200
H         12.52200        7.88900       20.54500
H         13.95400        7.00600       18.84000
H         12.58000        7.51200       18.22100
H         15.31800        5.89100       17.13900
H         16.38000        7.33700       18.58700
H         17.33300        7.85600       17.39500
H         18.57400        6.40200       18.73500
H         17.47600        5.27700       18.53700
H         19.26500        4.85600       17.11800
H         19.06500        6.28000       16.43800
H         17.20300        4.21100       16.32300
H         18.10400        4.65600       15.09400
H         17.03800        6.71100       15.02600
H         15.93300        5.59300       14.90400
H         13.23500        6.22200       15.79100
H         12.49100        7.61300       15.65800
H         14.00100        6.31600       13.64800
H         12.53200        6.91000       13.48000
H         12.00300        9.05700       12.26200
H         13.87100       11.21700       12.09400
H         13.37800       10.30200       10.88000
H         12.29200       12.43000       10.83600
H         11.25700       11.24800       10.95900
H         12.15600       12.78900       13.16300
H         10.72300       12.96500       12.48600
H         10.54500       11.62900       14.41200
H         10.20100       10.77800       13.12500
H         12.67700       10.72200       14.48000
H         11.65000        9.52200       14.50800
H         15.24000        9.01400       11.22400
H         16.83200        7.85100       12.54700
H         16.03400        6.51500       12.28200
H         17.83800        6.65500       10.78300
H         17.32300        8.06000       10.24600
H         16.66500        6.41300        8.72500
H         15.97100        5.57400        9.88800
H         15.10300        8.09900        8.93900
H         14.33300        6.72500        8.68400
H         13.85500        6.57400       11.00200
H         13.29600        7.95200       10.44800
