171
C:\Users\Javier\OneDrive - Universitat de Barcelona\Tesi\4 - Contribucions\Treballs\3-PhD\chapter_1\cif\pc2p\JUBBOZ.pc2p.pdb
F         10.50600        8.38400       18.14700
F         11.38100        6.49600       18.63400
F          9.83200        7.28200       19.83800
F          5.07700        7.44300       16.28100
F          4.70500        5.52200       17.02700
F          5.18900        7.05700       18.38500
F          4.48400        1.79800       16.31000
F          4.52700       -0.14400       15.40300
F          5.99100        0.38500       16.88200
F          6.47400        2.09500       10.27400
F          7.98600        0.63700       10.57300
F          5.96400        0.07800       10.87800
F         12.33100        8.41100       12.83100
F         12.52600        7.73200       10.80800
F         13.23100        6.54700       12.41400
F         14.12400        3.07800       12.73400
F         14.62400        1.14100       13.53600
F         13.09800        1.33800       12.05400
B          9.13600        4.06900       14.55300
C          8.67000        5.00300       15.82500
C          9.59500        5.59200       16.70200
C          9.21500        6.47600       17.70700
C          7.87300        6.80000       17.90000
C          6.94500        6.23700       17.03900
C          7.33300        5.37300       16.02800
C         10.23700        7.15800       18.56500
C          5.49300        6.58400       17.19500
C          7.99600        2.95100       14.15100
C          7.14700        2.36900       15.09900
C          6.20800        1.39000       14.76000
C          6.07800        0.94700       13.45400
C          6.93000        1.49100       12.50700
C          7.86300        2.46300       12.84500
C          5.30100        0.85800       15.83000
C          6.81500        1.07700       11.06800
C          9.41000        5.13800       13.33300
C          8.40600        5.54400       12.43900
C          8.64300        6.45500       11.41400
C          9.89500        7.03300       11.25100
C         10.89000        6.68700       12.15200
C         10.64900        5.77700       13.17200
C          7.54100        6.83300       10.46800
C         12.23600        7.34100       12.04000
C         10.48100        3.19200       14.89200
C         11.45100        2.88600       13.92700
C         12.58100        2.11500       14.22100
C         12.76400        1.58100       15.48300
C         11.78900        1.83300       16.44300
C         10.69000        2.62400       16.15600
C         13.61000        1.91800       13.14200
C         11.93100        1.26800       17.82500
H         10.54400        5.40000       16.61200
H          7.62800        7.37000       18.54600
H          6.64900        5.02000       15.44700
H          7.17600        2.67800       16.02800
H          5.48700        0.35900       13.22200
H          8.42100        2.76800       12.19600
H          7.57500        5.13900       12.51300
H         10.06900        7.67500       10.54000
H         11.41100        5.55400       13.77200
H         11.40300        3.23900       13.04600
H         13.47600        1.09600       15.66600
H         10.08800        2.80400       16.81800
F         12.69800        0.22800       17.87700
F         12.41400        2.08100       18.65200
F         10.78500        0.87500       18.35000
F          6.86200        7.87700       10.86500
F          7.97700        7.13200        9.25800
F          6.65600        5.87700       10.29600
P          8.59000       -3.37500       16.28000
P          9.39200       -3.37200       13.42100
C          9.42000       -7.19300       15.76700
C          9.90300       -7.18400       14.29200
C          9.12000       -8.35200       13.66600
C          7.65300       -7.95200       13.52000
C          7.15500       -7.87700       14.98000
C          8.38700       -8.32000       15.78400
C          9.05900       -9.32700       14.83900
C          9.56900       -3.46600       17.83700
C          9.28200       -2.34600       18.84700
C         10.04600       -2.60100       20.15300
C         11.54400       -2.77900       19.91600
C         11.81600       -3.86800       18.88400
C         11.07300       -3.58400       17.57300
C          6.82500       -3.40100       16.83100
C          5.87800       -3.31600       15.63500
C          4.41200       -3.41000       16.07900
C          4.15900       -4.68800       16.84700
C          5.05100       -4.73600       18.07300
C          6.53100       -4.62800       17.69100
C          8.84500       -1.69500       15.55200
C          8.70600       -1.77100       14.02100
C          8.51600       -3.78000       11.85200
C          7.07200       -4.24100       12.10600
C          6.44400       -4.76700       10.81500
C          6.46000       -3.69700        9.72900
C          7.87300       -3.16900        9.49300
C          8.52800       -2.68400       10.79500
C         11.12800       -3.03400       12.90300
C         11.83500       -4.33700       12.55400
C         13.28300       -4.08700       12.11600
C         14.03800       -3.34000       13.19100
C         13.36000       -2.03100       13.52000
C         11.91600       -2.26100       13.97000
Rh         9.19700       -4.97500       14.90800
H         10.16100       -7.38800       16.35200
H         10.85500       -7.37000       14.23300
H          9.50700       -8.68200       12.86500
H          7.16100       -8.64600       12.98200
H          7.59700       -7.15400       13.04100
H          6.44900       -8.50200       15.09300
H          6.90300       -6.88400       15.19100
H          8.15400       -8.68200       16.61800
H         10.02700       -9.61600       15.13200
H          8.51800      -10.06600       14.66300
H          9.31700       -4.36800       18.22500
H          8.34500       -2.30100       19.06400
H          9.56300       -1.52800       18.47600
H          9.89400       -1.85100       20.72400
H          9.74700       -3.50500       20.54800
H         12.00600       -3.03800       20.76300
H         11.90800       -1.88700       19.61000
H         12.77400       -3.97200       18.71000
H         11.55700       -4.69100       19.25800
H         11.43000       -2.71400       17.20700
H         11.22700       -4.31400       16.99000
H          6.69100       -2.67800       17.37900
H          6.12700       -4.08000       15.03500
H          6.02800       -2.46300       15.15200
H          4.15300       -2.64200       16.67700
H          3.88900       -3.34300       15.36700
H          3.22400       -4.76300       17.16600
H          4.39400       -5.42800       16.28600
H          4.93600       -5.59000       18.45600
H          4.81500       -3.97200       18.67100
H          7.12400       -4.63700       18.51500
H          6.78400       -5.33800       17.18500
H          9.70200       -1.42000       15.79900
H          8.22900       -1.09600       15.91300
H          9.09800       -1.00700       13.63300
H          7.74600       -1.77900       13.76400
H          8.99400       -4.53000       11.51200
H          7.04500       -4.94300       12.78600
H          6.55800       -3.46900       12.41500
H          6.95000       -5.62600       10.53800
H          5.52800       -5.06900       10.96800
H          5.91900       -2.93000       10.03000
H          6.06600       -4.00800        8.93500
H          8.40300       -3.91800        9.13000
H          7.87900       -2.42700        8.81700
H          9.42400       -2.39100       10.59700
H          8.03600       -1.90500       11.16400
H         11.04700       -2.46300       12.16900
H         11.79600       -4.97900       13.35300
H         11.36500       -4.76300       11.88700
H         13.61100       -4.90700       11.90700
H         13.26800       -3.57700       11.30000
H         14.07900       -3.93600       14.01800
H         14.87500       -3.16400       12.90400
H         13.88300       -1.58200       14.19400
H         13.35800       -1.42000       12.68900
H         11.92500       -2.80400       14.72200
H         11.52300       -1.31200       14.15500
H          8.91100       -6.43500       16.14900
H          9.69100       -6.39900       13.68600
F         13.10700        0.83200       18.07600
F         11.68100        2.14300       18.77100
F         11.16400        0.30200       18.05300
F          6.46100        7.25800       11.08100
F          7.87400        7.78100        9.65000
F          7.15100        5.84500        9.71900
