168
C:\Users\Javier\OneDrive - Universitat de Barcelona\Tesi\4 - Contribucions\Treballs\3-PhD\chapter_1\cif\pc2p\JUBBOZ03.pc2p.pdb
B          9.18800       13.00200        5.04000
C          9.79700       14.01600        3.70400
C          8.85000       14.60000        2.87000
C          9.20500       15.50500        1.85200
C         10.57400       15.81600        1.68600
C         11.55900       15.23500        2.52000
C         11.13700       14.34100        3.52000
C          8.12500       16.11300        0.93800
C         13.02800       15.61400        2.30500
C          9.01400       14.16500        6.17900
C         10.02000       14.50300        7.07600
C          9.81900       15.40000        8.13700
C          8.53700       15.97600        8.29700
C          7.49300       15.64900        7.40000
C          7.76400       14.74400        6.36100
C         10.91300       15.87000        9.03400
C          6.13400       16.16100        7.58800
C          7.98700       12.19400        4.58700
C          7.06300       11.94100        5.59300
C          5.91300       11.16400        5.38800
C          5.67600       10.62200        4.10900
C          6.60000       10.86300        3.06500
C          7.73300       11.64700        3.33900
C          4.85200       10.93900        6.36500
C          6.56600       10.37800        1.69800
C         10.46100       11.93500        5.36100
C         11.29400       11.38500        4.39800
C         12.24900       10.39600        4.69500
C         12.35400        9.96200        6.03900
C         11.51900       10.50600        7.04500
C         10.58700       11.48900        6.67000
C         13.15600        9.90900        3.63400
C         11.58200       10.05200        8.45900
H          7.80300       14.27800        3.04800
H         10.85800       16.43600        0.80100
H         11.99300       13.82900        4.00500
H         11.01800       14.02700        6.93500
H          8.37600       16.54400        9.24100
H          7.01700       14.42200        5.60700
H          7.29100       12.26400        6.63500
H          4.74200       10.07000        3.86800
H          8.61000       11.77900        2.67700
H         11.18300       11.58100        3.30800
H         13.26300        9.44100        6.42800
H         10.10500       12.04800        7.49800
F          7.83300       17.26300        1.27000
F          8.58500       16.45400       -0.31300
F          7.07700       15.55500        1.05500
F         13.26600       16.02300        1.21100
F         13.29500       16.40000        3.43800
F         13.68400       14.56600        2.54000
F          5.91600       16.81400        8.65500
F          6.04700       17.06600        6.81800
F          5.21900       15.57300        7.09200
F          4.37300       12.01300        6.72100
F          3.88000       10.12400        5.97800
F          5.36300       10.28600        7.38500
F         14.03800       10.80900        3.19400
F         13.96500        8.86000        4.22000
F         12.29000        9.40500        2.63700
F         11.94300       11.11300        9.12400
F         12.58400        9.17100        8.71300
F         10.44400        9.71100        8.90900
F         11.19200       17.19700        8.75200
F         12.04500       15.10600        8.83100
F         10.51300       15.75300       10.35400
F          5.56300        9.53800        1.40500
F          6.45700       11.32000        0.75000
F          7.64900        9.69300        1.30100
Rh         9.24500        3.95600        4.71000
C          9.92500        5.15600        7.79500
P          9.85200        5.46700        3.48700
P          9.17900        5.57500        6.21300
C          9.03700        1.70300        3.82900
C          8.59300        1.76200        5.17700
C          9.33500        0.52200        5.84100
C         10.82200        1.11500        5.84100
C         11.29700        1.02500        4.61100
C         10.08500        0.73700        3.71200
C          9.40800       -0.28800        4.68900
C         11.67100        5.59600        2.69200
C         12.58300        5.71100        3.86600
C         14.00700        5.55100        3.45000
C         14.20100        4.26700        2.71200
C         13.34400        4.25100        1.49300
C         11.90400        4.39100        1.84600
C          8.87900        5.46700        1.66500
C          7.41400        5.40200        1.94800
C          6.64600        5.13400        0.69400
C          6.92000        6.19000       -0.32600
C          8.38000        6.35200       -0.57800
C          9.12300        6.56600        0.69400
C          9.57200        7.22000        4.05000
C          9.70900        7.18100        5.44500
C         11.33500        4.78000        7.49000
C         12.01700        4.24800        8.70700
C         11.95500        5.23800        9.82100
C         10.61000        5.83000       10.06300
C          9.97100        6.26300        8.78900
C          7.29100        5.93600        6.64200
C          6.64300        4.66700        7.08200
C          5.25300        4.91100        7.56300
C          4.44000        5.60300        6.52300
C          5.08500        6.87800        6.10100
C          6.47400        6.64100        5.61100
H          8.21700        1.79800        3.06700
H          7.58100        1.79800        5.23600
H         11.23800        0.34200        6.56400
H         12.17500        0.43200        4.55200
H          8.76700        2.69700        5.72400
H          9.49100        2.64300        3.32100
H          8.84200        0.19800        6.38800
H         10.93300        2.03200        6.56400
H         11.62400        2.14000        4.51300
H         10.33600        0.43200        2.95000
H          8.58000       -0.79100        4.33700
H          9.95900       -1.09700        4.72800
H         11.74800        6.67200        2.28600
H         12.14100        4.80100        4.43500
H         12.36800        6.65400        4.49300
H         14.29100        6.29400        2.61800
H         14.65700        5.68300        4.39600
H         14.16900        3.47100        3.53600
H         15.31100        4.40600        2.42300
H         13.90200        3.36300        0.99600
H         13.60900        4.92700        0.58600
H         11.57800        3.34100        2.20800
H         11.25500        4.51400        0.89900
H          9.38100        4.58600        1.11400
H          7.29500        4.53200        2.69600
H          7.16400        6.31200        2.61800
H          5.53200        4.99900        0.95700
H          6.95900        4.02100        0.54700
H          6.46300        5.88000       -1.34800
H          6.42400        7.19300       -0.03900
H          8.56700        7.42700       -0.97700
H          8.83400        5.35900       -0.97700
H         10.26600        6.69000        0.64500
H          8.87700        7.44500        1.40700
H         10.26300        7.98400        3.47800
H          8.59800        7.53500        3.45800
H         10.81200        7.21100        5.84100
H          9.36500        8.07400        6.11500
H          9.15200        4.37000        8.14700
H         11.97100        5.55700        6.91600
H         11.55600        3.92000        6.76000
H         11.50200        3.34500        9.22100
H         13.03800        4.01000        8.20500
H         12.66900        6.15000        9.71000
H         12.34800        4.99900       10.87600
H         10.08500        5.03500       10.70600
H         10.69700        6.85100       10.62800
H          8.81500        6.67200        9.20200
H         10.48200        7.15700        8.28400
H          7.41200        6.42000        7.68400
H          6.39500        4.31600        6.01700
H          7.39100        4.08200        7.75600
H          4.87200        5.44900        8.51800
H          4.53200        4.02800        7.77600
H          3.31500        5.66500        6.77900
H          4.37300        5.23300        5.43100
H          4.25600        7.44500        5.52900
H          5.20400        7.64300        6.97500
H          6.96900        7.64300        5.31400
H          6.37600        5.88000        4.74700
F         11.88400       16.50800        8.28500
F         11.47600       14.78500        9.69000
F         10.39900       16.76000        9.97100
