123
C:\Users\Javier\OneDrive - Universitat de Barcelona\Tesi\4 - Contribucions\Treballs\3-PhD\chapter_1\cif\pc2p\JUDCOD.pc2p.pdb
Ru        10.26100       20.23500        0.48000
P         11.66800       19.71900       -1.19900
O         16.33300       28.90000        7.57400
N         16.47000       26.17500        2.72400
C          8.70000       21.66800        1.22200
P         11.57400       18.82600        1.65400
O         20.61500       27.41500       -0.78700
C          8.71000       21.66400       -0.20400
C          8.31200       20.36800       -0.63500
C          8.09300       19.56400        0.51400
C          8.32600       20.37900        1.66300
C          8.96600       22.86400        2.10600
H          8.99700       22.58200        3.02300
H          8.26200       23.50600        1.99300
H          9.80500       23.26200        1.86400
C          8.94500       22.87400       -1.06300
H          9.75800       23.30500       -0.79200
H          8.21000       23.48300       -0.96500
H          9.01600       22.60500       -1.98200
C          7.99800       19.97700       -2.03800
H          8.49400       20.53100       -2.64300
H          7.05800       20.08900       -2.19800
H          8.23900       19.05900       -2.17500
C          7.48600       18.17500        0.52300
H          7.74300       17.70800       -0.27600
H          6.52900       18.24300        0.55900
H          7.80100       17.69200        1.29100
C          8.02300       19.96400        3.06300
H          8.18200       19.02200        3.16000
H          7.10200       20.15500        3.26100
H          8.58700       20.44900        3.66900
C         11.97300       21.03400       -2.42500
C         12.85700       22.07200       -2.16800
H         13.37600       22.04400       -1.39600
C         12.98600       23.13800       -3.02000
H         13.59600       23.81300       -2.82700
C         12.23000       23.21800       -4.14600
H         12.31300       23.95200       -4.71300
C         11.33300       22.20300       -4.44700
H         10.81100       22.25500       -5.21400
C         11.21900       21.10700       -3.59900
H         10.63500       20.41600       -3.81500
C         11.40100       18.27000       -2.28400
C         12.23900       18.06400       -3.37700
H         12.87100       18.70900       -3.59800
C         12.14900       16.91600       -4.13700
H         12.72000       16.77400       -4.85800
C         11.21400       16.00100       -3.81100
H         11.14800       15.23200       -4.32700
C         10.32600       16.16600       -2.71600
H          9.68400       15.52200       -2.51200
C         10.45400       17.32900       -1.95500
H          9.89600       17.47000       -1.22500
C         11.06300       17.07200        1.80600
C         11.49200       16.11500        0.91200
H         12.12600       16.35400        0.27500
C         11.02700       14.83300        0.92100
H         11.37000       14.20200        0.32800
C         10.06600       14.49700        1.80300
H          9.71100       13.63700        1.77600
C          9.59700       15.37900        2.73100
H          8.94600       15.11900        3.34300
C         10.12500       16.70600        2.74600
H          9.83800       17.31900        3.38500
C         11.98700       19.19300        3.40100
C         12.74100       18.31700        4.16100
H         13.02000       17.51000        3.79300
C         13.09000       18.63600        5.49000
H         13.61300       18.04800        5.98700
C         12.66800       19.78500        6.03700
H         12.90200       19.98600        6.91500
C         11.90100       20.66800        5.32600
H         11.60100       21.45600        5.71800
C         11.57200       20.36500        3.99800
H         11.06400       20.97000        3.50700
C         13.34100       19.30200       -0.49400
H         13.77500       18.64900       -1.06800
H         13.89000       20.10200       -0.48200
C         13.24600       18.76200        0.86200
H         13.86700       19.25000        1.42600
H         13.53700       17.83700        0.84200
C         11.67500       21.57900        0.91700
C         12.48900       22.43200        1.20800
C         13.48600       23.39400        1.58700
C         14.06100       23.37000        2.85300
H         13.77500       22.73400        3.46800
C         15.03700       24.25900        3.21700
H         15.42200       24.19600        4.06100
C         15.45700       25.24500        2.34900
C         14.88900       25.30400        1.08500
H         15.16000       25.96000        0.48600
C         13.92000       24.39000        0.71300
H         13.55100       24.44100       -0.13800
C         16.39300       26.85800        3.95800
C         15.19700       27.11700        4.57700
H         14.40800       26.84800        4.16300
C         15.12600       27.76400        5.79500
H         14.30300       27.89800        6.20900
C         16.28600       28.20700        6.38900
C         17.49700       27.96800        5.78600
H         18.27800       28.26800        6.18900
C         17.56300       27.28700        4.58700
H         18.38900       27.11200        4.19700
C         15.15000       29.02400        8.29700
H         14.51000       29.52200        7.78000
H         15.32400       29.48600        9.11900
H         14.79800       28.15200        8.48900
C         17.50300       26.45200        1.81200
C         17.83700       27.77100        1.50800
H         17.34800       28.46600        1.88700
C         18.89100       28.06400        0.64500
H         19.12000       28.94800        0.47100
C         19.60000       27.02600        0.04300
C         19.25800       25.70300        0.31600
H         19.72400       25.00900       -0.09000
C         18.21600       25.42300        1.20000
H         17.99400       24.54000        1.38200
C         21.06200       26.48500       -1.70600
H         21.59500       26.92700       -2.37300
H         20.31000       26.06200       -2.12600
H         21.59400       25.82400       -1.25900
O          6.40800       16.32800        4.50100
O          5.65300       18.02200        5.56900
