133
C:\Users\Javier\OneDrive - Universitat de Barcelona\Tesi\4 - Contribucions\Treballs\3-PhD\chapter_1\cif\pc2p\KARXOT.pc2p.pdb
W          0.67500        4.61100        4.07500
Ru        -3.92000        8.51000        2.68000
P         -3.97800       10.40000        3.94400
P         -5.88400        8.03000        3.71400
N         -3.28000        7.90400        5.57400
N         -2.95700        7.61300        4.28000
N         -1.99500        6.72200        4.19300
C         -1.66100        6.37800        5.47800
C         -2.49300        7.14100        6.33600
C         -0.55800        5.47100        5.71600
O         -0.44800        5.31000        7.03100
C          0.58900        4.47500        7.61700
H          1.48100        4.76300        7.30000
H          0.45400        3.52900        7.36000
C          0.49400        4.62700        9.09600
H          0.53800        5.57800        9.33000
H          1.23700        4.15100        9.52300
H         -0.35600        4.25400        9.40900
C         -2.63500        7.28400        7.80600
C         -2.81300        6.18700        8.64800
H         -2.79300        5.30700        8.29100
C         -3.02100        6.38000       10.01200
H         -3.14600        5.63000       10.58200
C         -3.04900        7.65500       10.53900
H         -3.18900        7.77800       11.47000
C         -2.87100        8.75100        9.71900
H         -2.88600        9.62700       10.08500
C         -2.66900        8.56400        8.35100
H         -2.55500        9.31800        7.78500
C          0.76800        2.71000        4.82200
C          0.71300        6.48800        3.24500
C          1.69600        3.90100        2.49800
C         -1.11600        4.21800        3.11700
C          2.47900        4.99100        4.93700
O          0.90800        1.62800        5.17100
O          0.78800        7.52200        2.77100
O          2.30700        3.49100        1.61100
O         -2.09000        3.98700        2.57700
O          3.53000        5.17800        5.35200
C         -3.43200        7.12500        1.00800
H         -3.41000        6.18000        1.10500
C         -4.55500        7.90900        0.65500
H         -5.42300        7.57400        0.46400
C         -4.17900        9.26700        0.63200
H         -4.74700       10.00500        0.44400
C         -2.78200        9.33000        0.94600
H         -2.25400       10.11800        0.98200
C         -2.33400        8.02700        1.19100
H         -1.45000        7.78000        1.43700
C         -5.25800       10.27400        5.27500
H         -4.86500        9.84600        6.07700
H         -5.56600       11.18100        5.52800
C         -6.44400        9.44800        4.77600
H         -7.05200       10.02800        4.25400
H         -6.94800        9.09600        5.55300
C         -2.43100       10.83700        4.81000
C         -1.23300       10.31000        4.34700
H         -1.23800        9.72500        3.59900
C         -0.02800       10.62200        4.96200
H          0.78900       10.27900        4.61600
C         -0.02400       11.43900        6.08800
H          0.79200       11.63500        6.53200
C         -1.21100       11.96200        6.55500
H         -1.20500       12.52000        7.32300
C         -2.40900       11.68700        5.92000
H         -3.21500       12.07400        6.23800
C         -4.38000       11.96100        3.07800
C         -5.66700       12.49300        3.07700
H         -6.36000       12.05900        3.56100
C         -5.94300       13.66400        2.36700
H         -6.82100       14.02600        2.37500
C         -4.95100       14.29700        1.65400
H         -5.14500       15.08700        1.16400
C         -3.67200       13.77600        1.65400
H         -2.98500       14.21400        1.16700
C         -3.38600       12.61500        2.36400
H         -2.50100       12.26600        2.36000
C         -5.87100        6.52800        4.76500
C         -5.15900        5.42300        4.29500
H         -4.72700        5.46500        3.45000
C         -5.07700        4.26200        5.05500
H         -4.60400        3.50800        4.72000
C         -5.68700        4.20400        6.30200
H         -5.61900        3.41600        6.82800
C         -6.38900        5.29200        6.77300
H         -6.80200        5.25200        7.62800
C         -6.49700        6.44300        6.00900
H         -7.00100        7.18000        6.33600
C         -7.37400        7.81100        2.67700
C         -8.24600        6.74000        2.82100
H         -8.05800        6.05900        3.45500
C         -9.39200        6.66500        2.03800
H         -9.98700        5.93000        2.14300
C         -9.67700        7.64900        1.10800
H        -10.46300        7.58900        0.57900
C         -8.81500        8.72000        0.94900
H         -9.01000        9.40100        0.31400
C         -7.66600        8.79400        1.72100
H         -7.06700        9.52200        1.60200
C         -3.72900        7.64300       14.57900
H         -3.05600        7.88400       13.90900
H         -3.67500        8.26400       15.33500
H         -4.62100        7.69200       14.17900
C         -3.47500        6.24800       15.06100
H         -2.58600        6.21800       15.49700
H         -4.15300        6.01900       15.74500
C         -3.51200        5.24500       14.01100
H         -2.89200        5.52800       13.29600
H         -4.42500        5.24000       13.62600
C         -3.17000        3.85200       14.39400
H         -3.81700        3.52700       15.07000
H         -2.26900        3.83500       14.80100
C         -3.19600        2.91900       13.17600
H         -4.02800        3.06000       12.67700
H         -3.14900        1.98800       13.47800
H         -2.43000        3.11500       12.59900
C         -3.94800        7.24800       14.70300
H         -3.10600        7.74300       14.59300
H         -4.45100        7.62700       15.45300
H         -4.47700        7.32000       13.88300
C         -3.64400        5.81100       14.97800
H         -2.85400        5.74600       15.57200
H         -4.41200        5.39500       15.44600
C         -3.38200        5.09400       13.75000
H         -2.63500        5.53700       13.27400
H         -4.18400        5.15100       13.16900
C         -3.03100        3.62900       13.96300
H         -3.79000        3.16400       14.39500
H         -2.24400        3.55800       14.56000
C         -2.71400        2.96200       12.59800
H         -3.50100        3.02100       12.01600
H         -2.48400        2.02100       12.74000
H         -1.96100        3.42300       12.17500
