118
C:\Users\Javier\OneDrive - Universitat de Barcelona\Tesi\4 - Contribucions\Treballs\3-PhD\chapter_1\cif\pc2p\KAZGUP.pc2p.pdb
Ru         4.50500       13.98100        4.74200
Ru         0.27200        8.28100       10.60200
Cl         4.49300       16.32800        4.45300
Cl         4.16800       11.62900        4.85500
Cl         0.82200       10.57600       10.72200
Cl        -0.00900        5.95700       10.28300
P          4.12700       13.75100        2.43600
P          2.13900       14.21700        4.80000
P          0.60300        8.51800        8.27400
P          2.61700        7.81000       10.61400
O          6.18600       14.12800        9.37900
O         -1.30200        8.55800       15.26900
N          6.56600       13.73400        4.86200
N          7.13500       13.68000        5.93500
N          5.09000       14.11400        6.75500
N         -1.68200        8.63600       10.72900
N         -2.28800        8.70300       11.87700
N         -0.17800        8.16400       12.60000
C          7.27700       13.46900        3.70800
C          7.50800       14.41500        2.73100
H          7.16500       15.29100        2.85900
C          8.23400       14.15000        1.55400
H          8.34700       14.80400        0.87500
C          8.75300       12.89900        1.45000
H          9.18700       12.66100        0.64000
C          8.68600       11.94900        2.46200
H          9.14800       11.12400        2.39400
C          7.91100       12.23600        3.59000
H          7.81900       11.58600        4.27400
C          6.23200       13.93400        6.97200
C          6.90000       13.99600        8.34800
C          8.37600       13.74900        8.40600
H          8.84900       14.50600        8.00800
H          8.58500       12.92800        7.91600
H          8.64700       13.64700        9.34400
C          4.02900       14.36100        7.66000
C          3.14300       13.42700        8.16400
H          3.25000       12.52800        7.87600
C          2.10000       13.68700        9.05900
H          1.53200       12.99900        9.37700
C          1.95800       14.97100        9.44800
H          1.26200       15.17300       10.05600
C          2.74800       16.00600        9.02400
H          2.59100       16.88700        9.33700
C          3.80800       15.75400        8.11800
H          4.36200       16.46200        7.81000
C          1.10900       12.75900        5.31500
H          0.16000       12.96600        5.17700
H          1.26600       12.56500        6.26100
H          1.35300       11.97800        4.77500
C          1.39600       15.56100        5.70500
H          0.44500       15.63000        5.47000
H          1.84800       16.39900        5.47800
H          1.48100       15.39600        6.66700
C          1.57300       14.44800        3.10200
H          0.60700       14.24300        3.04500
H          1.71000       15.38900        2.83400
C          2.38800       13.48900        2.14800
H          2.16500       13.68900        1.20100
H          2.14800       12.54500        2.32800
C          4.40700       15.16900        1.31800
H          5.36100       15.37800        1.28800
H          3.90800       15.94500        1.64900
H          4.09200       14.94000        0.41800
C          4.85400       12.36700        1.52900
H          4.73400       11.54200        2.04700
H          5.80700       12.53200        1.39300
H          4.40700       12.27600        0.66300
C         -2.59000        9.02500        9.66600
C         -3.12800       10.28000        9.57800
H         -2.96000       10.92100       10.25800
C         -3.91800       10.61200        8.51500
H         -4.30900       11.47700        8.46300
C         -4.16000        9.69500        7.49500
H         -4.69500        9.93100        6.75200
C         -3.59200        8.41800        7.59300
H         -3.75500        7.77700        6.91000
C         -2.83200        8.09700        8.63400
H         -2.44300        7.23200        8.68400
C         -1.40300        8.42900       12.97700
C         -2.08400        8.46200       14.21800
C         -3.50000        8.46500       14.41500
H         -3.76600        9.30100       14.85700
H         -3.74800        7.70600       14.98900
H         -3.95400        8.38900       13.55500
C          0.83400        7.77000       13.67300
C          0.81900        6.50000       13.99600
H          0.19400        5.89000       13.63200
C          1.83000        6.09900       14.93200
H          1.83500        5.20900       15.26600
C          2.76400        6.98700       15.34500
H          3.46600        6.68000       15.91100
C          2.75700        8.30700       14.97900
H          3.37500        8.92300       15.35000
C          1.82600        8.70900       14.07900
H          1.83100        9.59000       13.72800
C          3.24000        6.32800       11.49800
H          2.57700        5.61200       11.45000
H          3.40300        6.55800       12.44200
H          4.07900        6.03000       11.09100
C          3.81000        9.06300       11.18300
H          3.53700        9.94400       10.84900
H          4.70000        8.84500       10.83900
H          3.82700        9.07600       12.16000
C          3.11800        7.51900        8.92700
H          4.10700        7.59000        8.84300
H          2.85200        6.60900        8.63800
C          2.43600        8.58700        8.02700
H          2.64700        8.41600        7.07400
H          2.76700        9.49000        8.26100
C          0.17900        7.16900        7.14800
H         -0.79100        7.08500        7.09600
H          0.56500        6.33300        7.49100
H          0.54700        7.36100        6.26300
C         -0.06200        9.96200        7.40800
H          0.00200        9.82000        6.44000
H          0.45600       10.75600        7.65500
H         -0.99900       10.09100        7.65900
