199
C:\Users\Javier\OneDrive - Universitat de Barcelona\Tesi\4 - Contribucions\Treballs\3-PhD\chapter_1\cif\pc2p\KEFVOH.pc2p.pdb
Ru        -0.63900        0.11900        9.27700
S         -1.78000       -1.95800        8.71700
S          0.17200       -0.16100        7.01900
P          0.48500        2.23700        9.15600
P         -2.50000        1.34700        8.55600
O         -1.42700        0.30000       12.04000
N         -1.09900        0.21300       10.96400
N         -2.42100       -4.23800        9.73600
N         -1.37900       -2.71500       11.26700
N          1.16900       -0.96200        9.20700
N          2.27300       -1.83600        7.26700
C         -1.85400       -3.06400       10.04500
C         -2.47500       -5.14400       10.70900
C         -1.98400       -4.91000       11.94700
H         -2.01600       -5.57200       12.60100
C         -1.43200       -3.67000       12.23200
C         -3.13300       -6.46300       10.38100
H         -3.62500       -6.77400       11.14200
H         -2.45900       -7.10900       10.15300
H         -3.73000       -6.34900        9.63800
C         -0.88900       -3.27800       13.61200
H         -0.54700       -2.38100       13.57900
H         -0.18400       -3.87900       13.86100
H         -1.59500       -3.32700       14.25900
C          1.35600       -1.11300        7.86800
C          2.01400       -1.57500       10.03700
C          3.02000       -2.36300        9.47600
H          3.64100       -2.79300       10.02000
C          3.08800       -2.49300        8.10400
C          1.82300       -1.41900       11.52200
H          0.91200       -1.17300       11.70300
H          2.41200       -0.73500       11.85000
H          2.02200       -2.25000       11.96100
C          4.15100       -3.43100        7.49700
H          4.09300       -3.40000        6.53700
H          3.99400       -4.32900        7.79800
H          5.02300       -3.14700        7.77300
C          2.15500        2.28100        8.50800
C          2.46700        2.55300        7.25000
H          1.78500        2.74500        6.65100
C          3.73500        2.56100        6.81400
H          3.90700        2.74900        5.91900
C          4.74800        2.30800        7.62700
H          5.62000        2.36800        7.30700
C          4.52900        1.95300        8.95000
H          5.22800        1.73400        9.52200
C          3.20500        1.94200        9.37500
H          3.01000        1.70600       10.25300
C          0.48100        3.20400       10.67300
C          0.77000        2.58100       11.85500
H          0.89000        1.65800       11.86900
C          0.88800        3.29600       13.02600
H          1.04100        2.85500       13.82800
C          0.77400        4.66600       13.00200
H          0.96500        5.17100       13.75800
C          0.37200        5.27900       11.83600
H          0.15600        6.18400       11.83900
C          0.28700        4.56800       10.68400
H          0.09700        5.00800        9.88700
C         -0.56000        3.19600        8.02000
H         -0.29500        4.12900        8.04700
H         -0.43400        2.87300        7.11500
C         -3.88400        1.33700        9.69500
C         -4.23200        0.25900       10.40500
H         -3.73600       -0.51600       10.27200
C         -5.26000        0.19600       11.31600
H         -5.45100       -0.58700       11.77900
C         -5.97500        1.31400       11.50300
H         -6.64400        1.31100       12.14800
C         -5.75800        2.45700       10.78500
H         -6.29500        3.20600       10.91200
C         -4.70300        2.47900        9.84700
H         -4.54700        3.23900        9.33200
C         -3.16600        0.88600        6.93000
C         -4.10300       -0.08100        6.83600
H         -4.39000       -0.52000        7.60300
C         -4.65200       -0.43800        5.57800
H         -5.28800       -1.11300        5.50500
C         -4.20600        0.26100        4.45000
H         -4.57000        0.07200        3.61600
C         -3.24700        1.21000        4.56400
H         -2.95400        1.65500        3.80500
C         -2.69300        1.53100        5.81400
H         -2.01800        2.16800        5.88400
C         -2.01600        3.07800        8.39900
H         -2.56200        3.50600        7.72200
H         -2.16800        3.53400        9.24200
Ru        11.24700        3.91600        9.18600
S         10.08100        1.92500        8.44300
S         12.35500        3.62800        7.05300
P          9.56400        5.25300        8.23500
P         12.48700        5.95400        9.28900
O         10.26100        4.18300       11.87100
N         10.64100        4.05000       10.83100
N          9.44700        1.45500       10.98200
N          8.81900       -0.10700        9.30700
N         12.96000        2.70900        9.36200
N         14.39600        1.90500        7.58600
C          9.36300        0.96800        9.72500
C          8.78800        0.74400       11.91500
C          8.09500       -0.41100       11.56200
H          7.59500       -0.88700       12.18300
C          8.18800       -0.81200       10.24500
C          8.86200        1.27800       13.34300
H          9.68700        1.75200       13.46800
H          8.81800        0.54400       13.96100
H          8.12500        1.87300       13.50000
C          7.47600       -2.12400        9.79300
H          6.85200       -1.92200        9.09100
H          7.01100       -2.50800       10.53800
H          8.13100       -2.74700        9.47000
C         13.37400        2.62000        8.07400
C         13.62000        1.97800       10.27000
C         14.69200        1.21800        9.83100
H         15.17700        0.72200       10.45100
C         15.05700        1.17500        8.50500
C         13.10400        2.03800       11.67600
H         13.06100        2.95300       11.96100
H         13.69400        1.55000       12.25400
H         12.22600        1.65000       11.71200
C         16.20000        0.34800        8.01500
H         15.88000       -0.52200        7.76300
H         16.85300        0.25900        8.71100
H         16.60100        0.77400        7.25300
C          8.02100        5.38800        9.14200
C          7.23300        6.55400        9.07700
H          7.48800        7.26900        8.54000
C          6.03900        6.61100        9.85000
H          5.51000        7.37600        9.84700
C          5.69200        5.53500       10.58900
H          4.92000        5.58300       11.10700
C          6.39000        4.42200       10.61400
H          6.09600        3.69500       11.11300
C          7.56700        4.33800        9.89000
H          8.06000        3.55000        9.91500
C          9.08400        4.81200        6.54600
C          9.77100        5.33100        5.47800
H         10.48000        5.91400        5.62100
C          9.39600        4.97700        4.13300
H          9.84800        5.32400        3.39900
C          8.36600        4.12700        3.98400
H          8.08300        3.94300        3.11700
C          7.71900        3.52300        4.99300
H          7.06600        2.87700        4.83800
C          8.08700        3.92900        6.34000
H          7.62800        3.57500        7.06600
C         10.17900        6.95400        8.16100
H          9.76900        7.40800        7.40500
H          9.91700        7.42400        8.96900
C         14.24100        5.92300        8.88700
C         14.73600        6.11500        7.63500
H         14.13600        6.25200        6.93900
C         16.08600        6.11400        7.34800
H         16.37900        6.19800        6.47000
C         16.96600        5.99200        8.34300
H         17.87400        6.07100        8.16600
C         16.54900        5.75900        9.59200
H         17.17000        5.60700       10.27000
C         15.18600        5.74600        9.87700
H         14.90700        5.61300       10.75200
C         11.72300        7.01000        8.01200
H         12.03100        7.92500        8.11500
H         11.98100        6.70100        7.13100
C         12.25300        6.82300       10.85800
C         12.59000        6.17000       12.03700
H         12.88800        5.28900       12.01200
C         12.48200        6.83100       13.25600
H         12.71000        6.39400       14.04500
C         12.03800        8.14800       13.29400
H         11.96700        8.59100       14.10800
C         11.70100        8.80200       12.11500
H         11.40200        9.68200       12.14000
C         11.80800        8.14000       10.89800
H         11.58000        8.57800       10.11000
P          3.38200        8.30900       13.12600
F          3.29900        6.87400       12.58700
F          3.27000        9.68400       13.58700
F          2.04800        8.61400       12.28100
F          4.18800        8.70200       11.90100
F          4.56600        8.02500       13.88000
F          2.38300        7.79500       14.23500
P          6.62700        5.16500        0.06500
F          6.37900        3.79400       -0.40900
F          6.84100        6.62600        0.32000
F          5.24500        5.55600       -0.40700
F          7.35300        5.39500       -1.20600
F          7.88900        4.85600        0.71600
F          5.93600        4.89400        1.37400
C         12.47900        6.83000       10.88500
C         11.20800        6.99000       11.43200
H         10.48100        6.55100       11.05000
C         11.02700        7.79100       12.55200
H         10.17900        7.89100       12.92000
C         12.11400        8.44400       13.12400
H         11.99300        8.97800       13.87400
C         13.38200        8.28400       12.57600
H         14.10800        8.72600       12.96100
C         13.56300        7.48400       11.45700
H         14.41300        7.38600       11.09100
