128
C:\Users\Javier\OneDrive - Universitat de Barcelona\Tesi\4 - Contribucions\Treballs\3-PhD\chapter_1\cif\pc2p\KEMCOX.pc2p.pdb
Pd         1.91400        4.21600       12.58100
S          3.85000        3.08200       13.09800
S          0.95800        2.15900       12.21600
P          2.73900        6.30300       12.95900
P          0.04100        5.32700       11.89400
O          3.15600       -2.19100       13.43900
O          5.34000       -1.56100       12.03900
C          3.62800        1.49700       12.42500
C          2.21500        0.96100       12.39200
C          1.94400       -0.38200       12.46700
C          3.13400       -1.17300       12.76500
C          4.48100       -0.69500       12.18900
C          4.68900        0.73100       11.99100
C          0.55400       -1.04700       12.38000
C         -0.16900       -0.61600       11.08900
H          0.38200       -0.84900       10.31300
H         -1.03200       -1.07700       11.02800
H         -0.31700        0.35300       11.10600
C         -0.29100       -0.69100       13.60500
H          0.17900       -0.97000       14.41900
H         -0.44000        0.27700       13.62900
H         -1.15400       -1.15300       13.55200
C          0.65300       -2.58600       12.30600
H          1.19000       -2.84200       11.52700
H          1.07500       -2.92600       13.12100
H         -0.24700       -2.96700       12.22100
C          6.06700        1.18700       11.47200
C          6.36300        0.41200       10.16900
H          5.65700        0.59200        9.51400
H          7.22700        0.70100        9.80600
H          6.39400       -0.54800       10.36000
C          7.16500        0.91400       12.50500
H          7.13600       -0.02900       12.76900
H          8.04000        1.11700       12.11300
H          7.02000        1.47900       13.29200
C          6.13100        2.66900       11.07300
H          5.43300        2.85900       10.41100
H          5.99000        3.22700       11.86600
H          7.01000        2.86500       10.68600
C          1.30200        7.41000       13.14500
H          0.85000        7.23800       14.00900
H          1.59700        8.35500       13.12900
C          0.34300        7.14000       11.98800
H          0.73600        7.46200       11.13900
H         -0.51100        7.61800       12.13700
C          3.77000        6.59100       14.41800
C          3.73900        5.67300       15.46400
H          3.19300        4.89900       15.39900
C          4.50800        5.88800       16.60700
H          4.48900        5.25900       17.31900
C          5.30000        7.02000       16.70200
H          5.82600        7.16600       17.47900
C          5.32800        7.94200       15.66500
H          5.87100        8.71800       15.73500
C          4.56400        7.73400       14.52500
H          4.58100        8.36900       13.81800
C          3.69200        6.93200       11.54500
C          4.60800        6.07000       10.94100
H          4.69700        5.17900       11.25700
C          5.39000        6.50700        9.88100
H          6.02700        5.92400        9.48700
C          5.23800        7.80200        9.39900
H          5.76700        8.10000        8.66800
C          4.32200        8.65500        9.97800
H          4.21900        9.53700        9.64000
C          3.54600        8.23400       11.05300
H          2.92100        8.82800       11.45100
C         -1.46800        5.04600       12.84800
C         -2.60800        5.82200       12.58900
H         -2.59100        6.48400       11.90700
C         -3.75800        5.61800       13.33200
H         -4.52600        6.15200       13.17000
C         -3.79300        4.63900       14.30800
H         -4.58900        4.50100       14.80800
C         -2.67800        3.86000       14.56300
H         -2.71000        3.18500       15.23100
C         -1.50600        4.07100       13.83500
H         -0.73400        3.54700       14.01500
C         -0.37900        4.96100       10.17300
C         -1.44100        4.14900        9.86000
H         -2.00700        3.82500       10.55100
C         -1.69400        3.79700        8.53700
H         -2.42900        3.23300        8.33000
C         -0.88000        4.26500        7.52700
H         -1.05800        4.03500        6.62300
C          0.18900        5.06500        7.83800
H          0.75600        5.38400        7.14600
C          0.44800        5.41000        9.15200
H          1.19600        5.95900        9.35800
O         -3.72500        1.23400       16.11100
C         -5.12100        1.09500       16.28900
H         -5.60500        1.71600       15.69000
H         -5.36800        1.30300       17.22400
C         -5.47900       -0.32100       15.96300
H         -6.20500       -0.64800       16.55100
H         -5.76500       -0.40700       15.01900
C         -4.20900       -1.07100       16.21000
H         -4.26700       -1.59500       17.04700
H         -4.01100       -1.68500       15.46000
C         -3.16300       -0.01100       16.31800
H         -2.74800       -0.04400       17.21600
H         -2.45500       -0.17300       15.64500
O         -0.87200        8.72100        9.45200
C         -1.76100        8.40600        8.40900
H         -2.59100        8.01300        8.77900
H         -1.34800        7.74500        7.79900
C         -2.07700        9.66100        7.66300
H         -2.75600       10.21100        8.13000
H         -2.37100        9.48100        6.73600
C         -0.68500       10.29100        7.71900
H         -0.04200        9.83600        7.11900
H         -0.70200       11.26100        7.52200
C         -0.41400       10.01100        9.15300
H          0.55800       10.07400        9.33300
H         -0.87900       10.67400        9.72200
O         -1.24400       10.24100        6.97500
C         -0.35500       10.55700        8.01800
H          0.47500       10.95000        7.64900
H         -0.76800       11.21700        8.62900
C         -0.03900        9.30100        8.76400
H          0.64000        8.75100        8.29700
H          0.25500        9.48100        9.69200
C         -1.43100        8.67200        8.70800
H         -2.07400        9.12600        9.30800
H         -1.41300        7.70200        8.90500
C         -1.70200        8.95200        7.27400
H         -2.67400        8.88800        7.09400
H         -1.23600        8.28900        6.70500
