103
C:\Users\Javier\OneDrive - Universitat de Barcelona\Tesi\4 - Contribucions\Treballs\3-PhD\chapter_1\cif\pc2p\KEQHUJ.pc2p.pdb
Pd         5.39500        2.03400       19.18400
Cl         4.18100        3.22400       17.55200
Cl         6.63500        0.80100       17.61800
P          6.67900        1.17400       20.82800
P          4.14600        2.96600       20.81000
N          5.15400        4.64000       25.24300
N          7.10900       -0.17200       13.48300
C          5.72400        1.41800       22.37900
H          4.99200        0.75300       22.44100
H          6.31500        1.31100       23.16800
C          5.15000        2.83300       22.33700
H          5.88200        3.49900       22.32700
H          4.58700        2.99800       23.13300
C          3.56200        4.68600       20.66000
C          2.19600        4.92500       20.61600
H          1.59600        4.18800       20.62600
C          1.68300        6.21000       20.55100
H          0.74600        6.35900       20.53200
C          2.56400        7.26900       20.51700
H          2.23000        8.15800       20.49700
C          3.92100        7.05500       20.51400
H          4.50400        7.80300       20.49200
C          4.48100        5.74000       20.54400
C          5.96500        5.59800       20.43500
H          6.16700        4.62000       20.37300
C          6.49000        6.25500       19.14400
H          6.00200        5.89700       18.37500
H          7.44500        6.06000       19.04300
H          6.35800        7.22500       19.19600
C          6.71800        6.13900       21.63700
H          6.37900        5.71500       22.45300
H          6.58800        7.10900       21.69400
H          7.67400        5.94200       21.54100
C          2.66200        1.92200       21.06600
C          2.35600        1.05100       20.01700
H          2.88100        1.08100       19.22600
C          1.30100        0.13700       20.09900
H          1.11000       -0.45200       19.37900
C          0.54900        0.11200       21.24100
H         -0.15400       -0.52000       21.33000
C          0.80800        1.00000       22.26500
H          0.25800        0.97000       23.03900
C          1.83800        1.93800       22.21600
C          2.03600        2.85600       23.39800
H          2.71600        3.54400       23.14600
C          2.54800        2.11100       24.62500
H          3.37900        1.64300       24.39900
H          1.87500        1.46100       24.91600
H          2.72100        2.75100       25.34700
C          0.71900        3.59300       23.76400
H          0.38400        4.07200       22.98000
H          0.89400        4.23000       24.48900
H          0.05100        2.94000       24.06100
C          7.23900       -0.55400       20.80900
C          8.60200       -0.82100       20.75700
H          9.21400       -0.09800       20.68000
C          9.09100       -2.10800       20.81600
H         10.02800       -2.26000       20.81400
C          8.21000       -3.17900       20.88300
H          8.53100       -4.07400       20.91500
C          6.85900       -2.90800       20.90000
H          6.25700       -3.64000       20.98400
C          6.32500       -1.63300       20.80100
C          4.82200       -1.45500       20.67300
H          4.64400       -0.47300       20.60100
C          4.05800       -1.96500       21.86700
H          4.39800       -1.53400       22.67800
H          4.17200       -2.93400       21.93600
H          3.10700       -1.75300       21.76100
C          4.32200       -2.10900       19.36700
H          3.35300       -1.99100       19.29300
H          4.53500       -3.06600       19.37900
H          4.76200       -1.68700       18.60000
C          8.17500        2.21000       20.97700
C          8.45900        3.02000       19.85600
H          7.91700        2.93700       19.08200
C          9.49000        3.92600       19.84900
H          9.66600        4.44800       19.07500
C         10.26300        4.07000       20.97400
H         10.95900        4.71500       20.99700
C         10.02500        3.27500       22.07200
H         10.57900        3.38200       22.83600
C          9.01200        2.32000       22.11400
C          8.88500        1.44400       23.35100
H          8.20800        0.73500       23.15800
C         10.23400        0.74700       23.65000
H         10.14200        0.18600       24.44900
H         10.92500        1.42400       23.80100
H         10.48800        0.18600       22.88600
C          8.41600        2.21500       24.54800
H          7.56500        2.65300       24.34000
H          9.08400        2.89300       24.78000
H          8.29400        1.60200       25.30200
C          6.05700        5.32100       25.31500
C          7.21100        6.22600       25.38400
H          7.04700        7.01100       24.82000
H          8.01200        5.75800       25.06500
H          7.34700        6.51100       26.31100
C          6.36200        0.62100       13.87900
C          5.46600        1.70100       14.30200
H          5.28400        1.61900       15.26100
H          4.62500        1.64100       13.80200
H          5.89100        2.56500       14.12100
