63
C:\Users\Javier\OneDrive - Universitat de Barcelona\Tesi\4 - Contribucions\Treballs\3-PhD\chapter_1\cif\pc2p\KEQWOS.pc2p.pdb
Pd         0.39900        3.87900       13.86100
P         -1.75300        4.20300       13.16800
P          0.89400        3.71600       11.62500
N          1.35300        5.77200       17.08000
N          2.65900        2.12100       16.57500
C         -0.14000        4.04600       15.89400
H         -1.07200        4.30500       15.95800
H         -0.03800        3.18300       16.32300
C          0.66800        5.01500       16.57500
C          2.40400        3.50900       14.43900
H          2.85800        3.06300       13.70700
H          2.84500        4.36200       14.58100
C          2.55800        2.71800       15.61600
C         -1.72200        4.59400       11.37900
H         -2.59900        4.44300       10.99200
H         -1.48700        5.52600       11.24700
C         -0.69600        3.69900       10.69600
H         -0.54500        4.01000        9.79000
H         -1.03600        2.79200       10.65000
C         -2.72600        2.68000       13.32500
C         -2.32800        1.69700       14.20700
H         -1.52900        1.80000       14.67300
C         -3.08200        0.57400       14.41300
H         -2.79800       -0.07600       15.01500
C         -4.25500        0.41000       13.73000
H         -4.78400       -0.33800       13.88600
C         -4.65200        1.34600       12.81900
H         -5.44300        1.22300       12.34500
C         -3.88300        2.47600       12.59500
H         -4.14600        3.09700       11.95300
C         -2.77000        5.51800       13.90900
C         -3.93700        5.28400       14.61400
H         -4.24300        4.41200       14.72500
C         -4.65100        6.34000       15.15200
H         -5.43500        6.17500       15.62500
C         -4.20900        7.62500       14.98700
H         -4.69600        8.33400       15.34600
C         -3.06000        7.87300       14.30100
H         -2.77000        8.74700       14.18400
C         -2.32800        6.83600       13.78100
H         -1.52900        7.01300       13.34000
C          1.86500        5.11400       10.96400
C          1.31700        6.04600       10.11400
H          0.44200        5.94700        9.81600
C          2.07600        7.14100        9.69700
H          1.69600        7.78000        9.13800
C          3.36300        7.28100       10.10500
H          3.86300        8.00600        9.80900
C          3.93600        6.35400       10.95300
H          4.82000        6.44600       11.22600
C          3.17400        5.28400       11.39200
H          3.54500        4.67000       11.98400
C          1.73200        2.21400       11.04700
C          2.62600        2.21500        9.99400
H          2.87500        3.01600        9.59200
C          3.15200        1.01100        9.53800
H          3.75300        1.01300        8.82700
C          2.79700       -0.17500       10.12200
H          3.14100       -0.97700        9.80400
C          1.94400       -0.16300       11.16200
H          1.71100       -0.96600       11.57000
C          1.40600        1.01900       11.63700
H          0.82000        1.00400       12.36000
