95
C:\Users\Javier\OneDrive - Universitat de Barcelona\Tesi\4 - Contribucions\Treballs\3-PhD\chapter_1\cif\pc2p\KERCOB.pc2p.pdb
C          3.48400       17.85500        8.19200
C          2.67000       18.99900        8.17400
H          2.87700       19.71800        7.59100
C          1.56700       19.08200        9.00600
H          1.02000       19.85700        8.98600
C          1.25300       18.04400        9.86500
H          0.50300       18.11300       10.44400
C          2.03600       16.90500        9.87500
H          1.80800       16.17900       10.44400
C          3.15300       16.81600        9.05900
H          3.69800       16.04000        9.09100
C          5.80700       16.27900        7.65300
C          6.55800       16.32800        8.83300
H          6.61300       17.13800        9.32900
C          7.22100       15.19500        9.28000
H          7.73300       15.23000       10.07900
C          7.14200       14.02000        8.57100
H          7.59700       13.24800        8.88700
C          6.41100       13.95100        7.41100
H          6.36900       13.13800        6.92100
C          5.73600       15.07300        6.95800
H          5.21700       15.02000        6.16500
C          6.03400       19.15200        7.55500
H          5.90200       19.35300        8.51600
H          6.97700       18.88300        7.42300
C          5.73800       20.40000        6.72800
H          6.48900       21.04200        6.80700
H          4.91700       20.83900        7.06300
C          4.65400       21.35700        4.22600
C          3.41200       21.74700        4.75000
H          3.07300       21.31900        5.52800
C          2.67800       22.74200        4.14900
H          1.83200       22.99300        4.50200
C          3.18100       23.38100        3.02200
H          2.67700       24.07000        2.60700
C          4.39200       23.02500        2.50600
H          4.72100       23.46800        1.73400
C          5.15200       22.02000        3.09700
H          5.99900       21.78500        2.73800
C          7.17500       19.93600        4.18800
C          8.31200       20.41900        4.81100
H          8.24400       20.80700        5.67700
C          9.55000       20.34300        4.19000
H         10.32500       20.66500        4.63500
C          9.65600       19.79800        2.92700
H         10.50200       19.75800        2.49600
C          8.53700       19.31500        2.28600
H          8.61100       18.93400        1.41900
C          7.29300       19.38300        2.91500
H          6.52000       19.05300        2.47000
C          7.08900       16.27300        4.25000
C          8.26600       15.37900        4.04200
H          7.94200       14.43300        4.02400
C          8.85400       15.71700        2.63100
C          8.00400       15.58500        1.62300
H          7.09400       15.36900        1.79400
C          8.44000       15.76100        0.31900
H          7.82200       15.67300       -0.39700
C          9.73700       16.05900        0.05000
H         10.03200       16.18100       -0.84500
C         10.58200       16.17400        1.06500
H         11.49200       16.38800        0.89500
C         10.16100       15.98600        2.36900
H         10.78500       16.04600        3.08100
C          9.21100       15.53500        5.21600
H          8.97500       14.79600        5.83100
H         10.10500       15.31000        4.85300
C          9.51500       16.91700        5.45200
H          9.71800       17.50700        4.73800
C          9.50400       17.38100        6.83900
H          9.16300       17.18000        7.70200
H          9.90800       18.22400        6.67300
C          2.40900       17.10400        5.05500
H          2.00400       16.78900        5.91300
C          2.34100       18.43800        4.56300
H          1.87000       19.20000        5.00800
C          2.86400       18.43400        3.21200
C          2.97800       19.41600        2.19200
H          2.66300       20.30100        2.34300
C          3.54300       19.08200        1.00200
H          3.60300       19.73500        0.31300
C          4.04000       17.77700        0.76800
H          4.43500       17.57800       -0.07300
C          3.97100       16.79800        1.71600
H          4.33500       15.93700        1.55000
C          3.34200       17.09400        2.95400
C          3.07400       16.28100        4.12900
H          3.22200       15.29500        4.21400
I          0.00500        3.39200        7.25000
N          6.18100       16.91500        4.45600
P          4.91600       17.75900        7.05500
P          5.51200       19.91900        4.96600
Ru         4.44300       17.88800        4.84500
C          9.43400       16.67400        6.07300
H          9.85600       17.20900        5.41300
