91
C:\Users\Javier\OneDrive - Universitat de Barcelona\Tesi\4 - Contribucions\Treballs\3-PhD\chapter_1\cif\pc2p\KERCIV.pc2p.pdb
C         21.83400        0.19400        6.90200
H         21.71400       -0.81600        7.14000
C         22.32400        0.80200        5.73800
H         22.70600        0.41200        4.93700
C         22.28200        2.22200        5.88700
H         22.60200        2.85700        5.26500
C         21.90900        2.48300        7.24800
C         21.85700        3.66500        8.00500
H         22.04200        4.50600        7.60400
C         21.53200        3.57900        9.33500
H         21.50200        4.37600        9.85100
C         21.24800        2.37400        9.95300
H         21.03000        2.36200       10.87800
C         21.27500        1.19700        9.25300
H         21.07900        0.37200        9.67900
C         21.60400        1.24200        7.88100
C         18.46300       -0.40400        8.48600
C         18.13400        0.43400        9.55700
H         17.77600        1.30000        9.39300
C         18.33300       -0.00400       10.87100
H         18.11100        0.57100       11.59600
C         18.84900       -1.26200       11.13200
H         18.98100       -1.54900       12.02800
C         19.17100       -2.10000       10.07700
H         19.53000       -2.96200       10.24800
C         18.97100       -1.68100        8.76900
H         19.18300       -2.26800        8.05200
C         18.05700       -1.33400        5.78000
C         19.15100       -2.12400        5.42100
H         20.01800       -1.88600        5.72900
C         18.99900       -3.23800        4.63100
H         19.75200       -3.77300        4.41100
C         17.73600       -3.57500        4.15700
H         17.62800       -4.32500        3.58500
C         16.63600       -2.81200        4.52500
H         15.77200       -3.04700        4.20500
C         16.78400       -1.71200        5.34800
H         16.02200       -1.21400        5.62000
C         16.85700        1.23800        6.61900
H         16.05300        0.66500        6.53200
H         16.76000        1.79200        7.43300
C         16.99600        2.13700        5.38600
H         16.25500        2.79300        5.35600
H         16.96600        1.59100        4.56100
C         18.80600        3.98400        3.98700
C         17.92900        3.89200        2.92500
H         17.16500        3.33200        2.97900
C         18.18200        4.63600        1.76700
H         17.59900        4.55900        1.01900
C         19.26200        5.47100        1.70300
H         19.41700        5.98000        0.91500
C         20.13500        5.58500        2.78000
H         20.87700        6.17600        2.73500
C         19.91400        4.82000        3.92800
H         20.51600        4.87100        4.66200
C         18.31500        4.27300        6.78400
C         17.82100        5.54400        6.43700
H         17.60800        5.73100        5.53100
C         17.63700        6.54100        7.40700
H         17.31600        7.40200        7.16500
C         17.94100        6.24200        8.74100
H         17.83400        6.90700        9.41100
C         18.39900        4.96900        9.09100
H         18.57800        4.76600       10.00200
C         18.59300        3.99800        8.11700
H         18.91700        3.14000        8.36500
C         19.87300        0.99800        4.15900
C         19.67900        0.76400        2.86900
C         20.31000        1.64300        1.82900
C         21.45400        2.38000        2.08900
H         21.87600        2.30400        2.93700
C         22.00000        3.23000        1.12500
H         22.77500        3.74200        1.32600
C         21.40200        3.32200       -0.13500
H         21.77200        3.89300       -0.79800
C         20.27900        2.58800       -0.40900
H         19.87100        2.65900       -1.26500
C         19.72700        1.74200        0.54200
H         18.95900        1.22700        0.32900
C         18.72200       -0.36600        2.45000
H         18.32800       -0.76100        3.26700
H         17.98200        0.03100        1.92500
C         19.34600       -1.47900        1.63300
H         20.18200       -1.82200        1.92700
C         18.82200       -2.01000        0.54300
H         17.98700       -1.69400        0.21500
H         19.27800       -2.70800        0.08800
I         20.04500        6.42700       12.20700
P         18.37000        0.18900        6.74800
P         18.60800        3.00900        5.51200
Ru        20.20100        1.38800        5.92700
