60
C:\Users\Javier\OneDrive - Universitat de Barcelona\Tesi\4 - Contribucions\Treballs\3-PhD\chapter_1\cif\pc2p\KIBLIS.pc2p.pdb
Pd         3.09800       11.72900        4.68800
Br         2.32800       10.09000        2.99000
P          2.45400       10.35100        6.33700
C          3.60200        8.97700        6.58400
C          4.61400        8.72900        5.66500
H          4.69200        9.27300        4.89100
C          5.50600        7.69600        5.86800
H          6.20500        7.54500        5.24200
C          5.38700        6.88500        6.97400
H          5.99800        6.16900        7.10600
C          4.38100        7.11000        7.89100
H          4.29500        6.54600        8.65100
C          3.49200        8.16000        7.70400
H          2.80800        8.32100        8.34300
C          0.77800        9.68000        6.18700
C          0.51000        8.32100        6.17500
H          1.21700        7.69500        6.28000
C         -0.79600        7.87500        6.01100
H         -0.97900        6.94300        6.01000
C         -1.82400        8.77200        5.85100
H         -2.71300        8.46000        5.73000
C         -1.56300       10.12300        5.86500
H         -2.27500       10.74300        5.76100
C         -0.26900       10.58300        6.03000
H         -0.09400       11.51700        6.03600
C          2.47400       11.29100        7.91000
H          1.66300       11.85400        7.98100
H          2.49300       10.66800        8.67900
Cl         1.60400        5.37300        4.38000
Cl         1.12800        4.63600        7.15300
C          1.05000        4.12800        5.47300
H          1.60600        3.31800        5.35100
H          0.11500        3.89100        5.24700
P          3.74200       13.10600        6.33700
C          2.59400       14.48000        6.58400
C          1.58200       14.72800        5.66500
H          1.50400       14.18400        4.89100
C          0.69000       15.76100        5.86800
H         -0.00900       15.91200        5.24200
C          0.80900       16.57200        6.97400
H          0.19800       17.28800        7.10600
C          1.81500       16.34700        7.89100
H          1.90100       16.91100        8.65100
C          2.70400       15.29700        7.70400
H          3.38800       15.13600        8.34300
C          5.41800       13.77700        6.18700
C          5.68600       15.13600        6.17500
H          4.97900       15.76200        6.28000
C          6.99200       15.58200        6.01100
H          7.17500       16.51400        6.01000
C          8.02000       14.68500        5.85100
H          8.90900       14.99700        5.73000
C          7.75900       13.33400        5.86500
H          8.47100       12.71400        5.76100
C          6.46500       12.87400        6.03000
H          6.29000       11.94000        6.03600
C          3.72200       12.16600        7.91000
H          4.53300       11.60300        7.98100
H          3.70300       12.78900        8.67900
Br         3.86800       13.36700        2.99000
