39
C:\Users\Javier\OneDrive - Universitat de Barcelona\Tesi\4 - Contribucions\Treballs\3-PhD\chapter_1\cif\pc2p\KIMZIP.pc2p.pdb
Ru         1.96500        3.87600        3.18100
P          2.45200        2.06900        2.06500
P          0.55500        2.51700        4.12700
C          2.24700        5.53000        4.65600
C          3.53900        5.18800        4.05700
C          3.63200        5.28200        2.74200
C          2.65300        5.61000        1.88300
C          1.43800        5.92100        2.40900
C          1.17200        5.88800        3.85500
C          1.71400        0.50300        2.58200
C          0.37600        0.82300        3.38400
C          1.88300        2.07500        0.19800
C          2.32600        1.17600       -0.87900
C          4.27900        1.55700        1.80500
C          5.07400        1.37200        3.09800
C          0.78300        2.20300        5.99200
C          1.99300        1.43000        6.42200
C         -1.32400        2.96800        4.28000
C         -1.93400        3.54000        3.01900
F          2.03300        3.35900       -0.28100
F          0.53600        1.85000        0.29700
F          3.63100        1.40500       -1.26200
F          2.24900       -0.10200       -0.59300
F          1.62400        1.37900       -2.02200
F          4.89400        2.46100        1.02900
F          4.37300        0.33500        1.14600
F          6.37000        1.01900        2.71900
F          4.62500        0.43200        3.86300
F          5.21100        2.51400        3.76100
F          0.80700        3.34300        6.67200
F         -0.24400        1.43900        6.53000
F          2.12000        0.28200        5.80600
F          3.10600        2.16400        6.17100
F          2.07800        1.20300        7.71700
F         -2.07100        1.89300        4.61600
F         -1.49200        3.86600        5.29000
F         -3.28900        3.73300        3.26700
F         -1.46700        4.74600        2.74500
F         -1.80400        2.76100        1.98200
