73
C:\Users\Javier\OneDrive - Universitat de Barcelona\Tesi\4 - Contribucions\Treballs\3-PhD\chapter_1\cif\pc2p\KOFGUK.pc2p.pdb
Ru         5.87000        2.95300        3.01200
P          4.72600        1.02700        3.40800
N          5.06700        2.59200       -0.01800
C          5.36400        2.68800        1.09000
P          7.57600        1.51300        2.62800
C          7.12000        4.67900        3.74400
H          8.04400        4.71200        3.64800
C          6.18200        5.15500        2.80800
H          6.37800        5.54400        1.98700
C          4.88000        4.93300        3.34300
H          4.07500        5.15700        2.93600
C          5.02800        4.32000        4.59600
H          4.33200        4.07100        5.16200
C          7.02400        3.68500        6.16400
H          6.60200        2.87200        6.44900
H          6.89600        4.36400        6.83100
H          7.96400        3.53100        6.04300
C          6.42000        4.13900        4.86300
C          5.44400       -0.26400        2.31400
H          5.10400       -1.13700        2.56400
H          5.19700       -0.09200        1.39100
C          6.97100       -0.23100        2.46300
H          7.38100       -0.64400        1.68800
H          7.23100       -0.74000        3.24800
C          2.91500        0.95800        3.08500
C          2.31700        1.89800        2.27900
H          2.82300        2.58900        1.91900
C          0.93900        1.81400        1.99900
H          0.54500        2.44700        1.44300
C          0.17500        0.82200        2.53100
H         -0.73400        0.77300        2.34300
C          0.75800       -0.08900        3.33500
H          0.23300       -0.75500        3.71800
C          2.12300       -0.06400        3.60800
H          2.50600       -0.72500        4.13700
C          4.82700        0.29100        5.10000
C          4.61200        1.10900        6.19500
H          4.38300        2.00300        6.07700
C          4.74000        0.58100        7.47100
H          4.58800        1.13400        8.20400
C          5.08400       -0.71600        7.68800
H          5.19100       -1.03800        8.55500
C          5.26700       -1.54200        6.60700
H          5.47600       -2.43800        6.74500
C          5.14800       -1.06100        5.30800
H          5.28000       -1.62800        4.58400
C          8.82200        1.49300        3.98500
C          8.56500        0.83900        5.18200
H          7.82400        0.28400        5.25800
C          9.41200        1.01400        6.26300
H          9.20300        0.61700        7.07800
C         10.54600        1.75900        6.15200
H         11.12300        1.84300        6.87800
C         10.83300        2.38800        4.95800
H         11.60500        2.90300        4.88100
C          9.98000        2.25800        3.87200
H         10.18100        2.68200        3.06800
C          8.67900        1.80700        1.19600
C          9.60400        0.85000        0.79100
H          9.56600       -0.00600        1.15200
C         10.57800        1.15400       -0.14000
H         11.19000        0.50500       -0.40300
C         10.64200        2.41900       -0.67500
H         11.30200        2.63000       -1.29800
C          9.72500        3.37700       -0.28800
H          9.77000        4.23300       -0.64700
C          8.73600        3.07000        0.63700
H          8.11100        3.71500        0.88100
Cl        12.12400       -3.89100        1.99900
Cl        10.43700       -1.97800        3.37600
C         10.88100       -2.80900        1.90600
H         10.09800       -3.27800        1.58100
H         11.11300       -2.14000        1.24300
