77
C:\Users\Javier\OneDrive - Universitat de Barcelona\Tesi\4 - Contribucions\Treballs\3-PhD\chapter_1\cif\pc2p\KONMOP.pc2p.pdb
Pd         3.23000        2.12800        4.35100
Cr         3.60300        3.87900        0.75500
Cl         1.96300        4.11600        4.43400
P          4.34200        0.20500        4.27400
P          2.66200        1.46500        6.52200
C          4.54300       -0.41500        5.97700
C          3.23000       -0.26300        6.71500
C          4.17200        2.74100        2.62900
C          4.48800        2.00100        1.45700
C          5.30900        2.52100        0.44000
C          5.81200        3.83400        0.53600
C          5.49100        4.59700        1.65000
C          4.68500        4.06200        2.67700
C          3.44000        4.13500       -1.04300
O          3.35300        4.29300       -2.17800
C          1.95100        3.13400        0.77100
O          0.88700        2.65500        0.77400
C          2.83100        5.51800        1.12000
O          2.39200        6.53100        1.36100
C          6.00900        0.22200        3.55600
C          6.37600       -0.55900        2.47500
C          7.61800       -0.41200        1.90500
C          8.48400        0.50600        2.40500
C          8.15800        1.26200        3.47400
C          6.91600        1.11700        4.07200
C          3.38700       -1.07000        3.40500
C          3.67600       -2.42200        3.55300
C          2.93600       -3.37200        2.90600
C          1.89200       -3.00100        2.10100
C          1.58700       -1.66600        1.92800
C          2.34100       -0.70300        2.59700
C          3.73800        2.39900        7.65900
C          4.10800        1.90900        8.90600
C          4.92700        2.64600        9.74900
C          5.38500        3.85400        9.32600
C          5.03800        4.37100        8.11300
C          4.22800        3.61400        7.26200
C          0.99200        1.50600        7.25300
C          0.68000        0.74000        8.36500
C         -0.58800        0.79600        8.90600
C         -1.54500        1.58500        8.36200
C         -1.24700        2.36200        7.28200
C          0.02500        2.33200        6.70600
C          8.75900        4.68500        2.77900
Cl         7.97700        4.95000        4.39500
Cl         8.91400        6.25900        1.97600
Cl         8.10400        5.24100        4.17400
Cl         8.86900        5.74300        1.46600
H          4.06500        1.15000        1.50300
H          5.41200        1.93000       -0.48200
H          6.43600        4.19300       -0.25500
H          5.76000        5.44600        1.70100
H          4.42700        4.64000        3.57300
H          5.77600       -1.09900        2.04200
H          7.78100       -0.85600        1.10600
H          9.35500        0.66500        2.12700
H          8.81300        1.81500        3.91300
H          6.71600        1.70000        4.93400
H          4.31500       -2.65900        4.16800
H          3.04600       -4.27000        3.14700
H          1.38700       -3.66900        1.53100
H          0.84500       -1.39300        1.30400
H          2.10300        0.23000        2.60900
H          3.76000        1.12500        9.32900
H          5.12200        2.27500       10.74700
H          5.93900        4.32100        9.98100
H          5.56600        5.17700        7.68400
H          3.84500        3.98800        6.63500
H          1.32100        0.26800        8.79000
H         -0.79200        0.19200        9.72600
H         -2.44400        1.61100        8.67700
H         -1.80100        2.79900        6.83400
H          0.20000        2.90200        5.72800
H          5.22000        0.14100        6.46500
H          4.79600       -1.22700        5.98300
H          3.36400       -0.52400        7.62800
H          2.58200       -0.81800        6.46500
