93
C:\Users\Javier\OneDrive - Universitat de Barcelona\Tesi\4 - Contribucions\Treballs\3-PhD\chapter_1\cif\pc2p\KULPAK.pc2p.pdb
Ru         3.24500        3.53000        3.61300
P          4.49700        1.92400        4.61500
P          1.55600        2.07600        3.95100
C          3.85900        5.63100        3.10700
C          2.55000        5.37200        2.57800
C          2.68800        4.33300        1.59100
C          4.04600        3.93600        1.54800
C          4.78200        4.75300        2.48200
C          4.17700        6.70300        4.10300
H          3.54700        6.65100        4.85200
H          4.10200        7.58100        3.67200
H          5.09100        6.57900        4.43600
C          1.31600        6.12000        2.97000
H          1.28200        6.20400        3.94600
H          0.52500        5.63300        2.65600
H          1.33200        7.01200        2.56500
C          1.61300        3.87700        0.65000
H          0.73700        4.13700        1.00400
H          1.65300        2.90200        0.55800
H          1.74700        4.29300       -0.22700
C          4.69200        3.01600        0.54600
H          5.32600        2.42600        1.00600
H          5.16800        3.54700       -0.12600
H          4.00100        2.47600        0.10700
C          6.26800        4.77600        2.60900
H          6.61800        3.86400        2.52600
H          6.51600        5.14300        3.48300
H          6.64800        5.33600        1.90100
C          5.74900        0.97700        3.64200
C          5.37100       -0.08100        2.81700
H          4.45900       -0.34200        2.78100
C          6.31200       -0.75900        2.04500
H          6.04300       -1.48300        1.49200
C          7.63900       -0.36900        2.09000
H          8.28600       -0.82800        1.56700
C          8.02300        0.68200        2.89200
H          8.93500        0.94600        2.91900
C          7.08000        1.36000        3.66500
H          7.35300        2.08800        4.21000
C          5.54700        2.43000        6.03800
C          5.82200        3.78000        6.24400
H          5.42000        4.43600        5.68600
C          6.68700        4.17500        7.27000
H          6.88900        5.09500        7.38800
C          7.24800        3.23600        8.10700
H          7.82000        3.51100        8.81300
C          6.97600        1.88600        7.91700
H          7.35700        1.23700        8.49800
C          6.14400        1.48800        6.87400
H          5.98100        0.56300        6.73100
C          3.40200        0.57600        5.28700
H          3.41700       -0.20000        4.67300
H          3.74600        0.27800        6.16700
C          1.96600        1.07700        5.44300
H          1.88500        1.63100        6.25800
H          1.34400        0.31000        5.52100
C         -0.09800        2.78100        4.27400
C         -0.48300        3.19000        5.54800
H          0.10300        3.04700        6.28400
C         -1.70700        3.80500        5.75900
H         -1.96200        4.06100        6.63800
C         -2.56100        4.05000        4.69900
H         -3.40500        4.46400        4.84000
C         -2.16200        3.68000        3.43300
H         -2.72800        3.87200        2.69500
C         -0.97800        3.04700        3.21100
H         -0.74500        2.78100        2.33000
C          1.16500        0.75900        2.72700
C          0.01700       -0.03200        2.81700
H         -0.61400        0.13100        3.50900
C         -0.21000       -1.04900        1.91200
H         -1.01000       -1.56000        1.96600
C          0.72000       -1.32700        0.92600
H          0.56600       -2.03800        0.31400
C          1.87400       -0.57200        0.83100
H          2.52200       -0.76900        0.16500
C          2.08100        0.48100        1.72300
H          2.86000        1.01700        1.63900
C          2.75600        4.09800        5.47800
C          2.45900        4.47800        6.59600
C          2.11900        4.78600        7.95800
C          0.82400        5.17600        8.31800
H          0.16400        5.28400        7.64300
C          0.49200        5.40400        9.64000
H         -0.39600        5.65600        9.86500
C          1.44600        5.26800       10.65000
C          2.73000        4.89400       10.30200
H          3.38800        4.79400       10.98000
C          3.07700        4.66000        8.97100
H          3.96800        4.41500        8.75000
C          1.11400        5.54200       12.02800
C          0.87000        5.78100       13.16800
H          0.67400        5.97100       14.07700
