184
C:\Users\Javier\OneDrive - Universitat de Barcelona\Tesi\4 - Contribucions\Treballs\3-PhD\chapter_1\cif\pc2p\LAPROK.pc2p.pdb
Sb        -4.52000       -5.71200       -1.49000
Sb         4.82300       -6.10500       -2.74300
Sb         5.01600        2.96900       -8.63900
Sb        13.83300      -15.06500       -7.38900
Rh         9.20000       -1.91400       -4.61000
Rh         9.93300      -10.57100       -5.27600
Rh        -0.24300       -0.90900       -5.32800
Rh         0.29400        7.76000       -4.66900
P          8.21800        0.11800       -4.35100
P          8.50100       -1.65100       -6.79200
P         10.87900       -9.89400       -3.28900
P         11.03600       -8.75800       -6.09900
P         -1.07000       -1.16200       -3.19000
P         -0.93500       -3.05000       -5.55500
P          1.04900        5.76300       -3.98000
P          1.24700        7.12200       -6.67600
F         -6.32000       -5.71500       -1.41800
F         -4.48200       -6.22200        0.30500
F         -2.71700       -5.74700       -1.56300
F         -4.58700       -5.20500       -3.24800
F         -4.49600       -3.89100       -1.02100
F         -4.54800       -7.48100       -1.93300
F          3.37500       -5.00800       -2.14200
F          3.89300       -7.59200       -2.15400
F          6.21800       -7.15800       -3.35900
F          5.70800       -4.56000       -3.35500
F          4.00200       -6.26300       -4.41000
F          5.62300       -5.91900       -1.05500
F          3.22700        2.98600       -8.84900
F          4.74700        2.99400       -6.79200
F          6.84600        2.98600       -8.32500
F          5.24400        2.99300      -10.45900
F          5.11400        4.87000       -8.66500
F          4.95700        1.13300       -8.65900
F         13.60600      -14.37900       -5.64300
F         14.73700      -16.57000       -6.75000
F         13.99300      -15.72400       -9.14900
F         12.91500      -13.52700       -8.01600
F         12.20100      -15.92100       -7.24800
F         15.44900      -14.13300       -7.54400
C          8.93500        1.30700       -3.17000
C          8.14100        1.80000       -2.05300
C          8.67200        2.72600       -1.17700
C          9.96000        3.08800       -1.33600
C         10.72500        2.62500       -2.38100
C         10.22400        1.72000       -3.28300
C         11.17600        1.21400       -4.36100
C          6.45900       -0.06600       -3.91700
C          5.63500        1.06900       -3.90900
C          4.25200        0.89300       -3.57400
C          3.78200       -0.40200       -3.26700
C          4.62500       -1.48500       -3.29700
C          5.97600       -1.33800       -3.64600
C          8.21500        0.99900       -5.96700
C          7.74600        0.03000       -7.02900
C          7.15900       -2.75800       -7.41300
C          6.72400       -2.72600       -8.72300
C          5.75100       -3.63100       -9.11700
C          5.15700       -4.54400       -8.18900
C          5.63700       -4.55600       -6.86100
C          6.63700       -3.64400       -6.51500
C          7.17400       -1.70900       -9.80200
C          9.84400       -1.77300       -7.97400
C         10.18200       -3.04300       -8.54600
C         11.31500       -3.16500       -9.41800
C         12.04200       -2.05100       -9.69100
C         11.79500       -0.80300       -9.12500
C         10.69500       -0.69000       -8.22300
C          9.14600       -2.26500       -2.44500
C         10.41000       -1.76600       -2.72800
C         11.66100       -2.58700       -2.79600
C         11.99600       -3.06300       -4.23500
C         10.78300       -3.45400       -5.07500
C          9.67600       -4.10600       -4.64700
C          9.48300       -4.65500       -3.30300
C          8.79900       -3.70300       -2.21200
C         12.12400      -10.95000       -2.50700
C         12.60800      -10.69800       -1.17700
C         13.51000      -11.60500       -0.66300
C         13.99300      -12.71100       -1.36400
C         13.59400      -12.90100       -2.67000
C         12.63900      -12.04200       -3.16200
C         12.25600       -9.49800       -0.35200
C          9.58700       -9.73500       -2.03700
C          9.15700      -10.86800       -1.34000
C          8.11600      -10.83000       -0.41200
C          7.44900       -9.57200       -0.28500
C          7.80700       -8.47100       -0.93600
C          8.89900       -8.49800       -1.84000
C         11.72000       -8.26400       -3.46300
C         11.28800       -7.50600       -4.74300
C         10.26600       -7.76200       -7.42900
C          9.01500       -7.25700       -7.28200
C          8.42200       -6.50200       -8.32500
C          9.13300       -6.32100       -9.54100
C         10.39500       -6.85700       -9.68500
C         10.95700       -7.60100       -8.69300
C          8.19100       -7.42900       -5.99100
C         12.70100       -9.17700       -6.56900
C         13.64400       -8.19100       -7.02500
C         14.96000       -8.57300       -7.30100
C         15.34500       -9.85100       -7.13800
C         14.49200      -10.84600       -6.69000
C         13.14700      -10.48800       -6.40700
C          8.27500      -11.92400       -4.49000
C          9.51000      -12.62500       -4.58200
C         10.02000      -13.58800       -5.75200
C          9.66500      -13.07300       -7.02900
C          9.66600      -11.54600       -7.24000
C          8.56100      -10.72800       -7.07000
C          7.19400      -11.14200       -6.58700
C          7.29600      -12.23300       -5.49000
C         -2.51400       -0.18100       -2.64000
C         -2.99000       -0.12900       -1.30200
C         -4.10800        0.61500       -1.04700
C         -4.75400        1.34100       -2.01300
C         -4.36000        1.26200       -3.33700
C         -3.21100        0.53400       -3.66200
C         -2.41100       -0.96600       -0.19700
C          0.25200       -0.91800       -1.99700
C          0.54200        0.39800       -1.57700
C          1.59800        0.58500       -0.68900
C          2.38600       -0.52500       -0.18900
C          2.04900       -1.77200       -0.53600
C          0.96900       -2.00100       -1.47900
C         -1.68600       -2.89800       -2.90900
C         -1.00900       -3.85000       -3.92800
C         -0.02700       -4.21900       -6.59900
C          1.32900       -4.51900       -6.28400
C          2.01400       -5.46700       -7.11400
C          1.42000       -6.03000       -8.26700
C          0.09900       -5.70000       -8.55400
C         -0.57600       -4.78600       -7.76300
C          2.12300       -3.85000       -5.17300
C         -2.67400       -3.10600       -6.11500
C         -3.35200       -4.33000       -6.08900
C         -4.69500       -4.27700       -6.55300
C         -5.26100       -3.18600       -7.00300
C         -4.53300       -2.01900       -7.00900
C         -3.22100       -1.96900       -6.59900
C          0.94000        1.09700       -5.10100
C         -0.40200        1.35700       -5.37400
C         -1.02800        1.66400       -6.74400
C         -0.40300        0.80500       -7.91500
C         -0.05200       -0.59900       -7.55400
C          1.17400       -1.02200       -7.05300
C          2.39500       -0.18500       -6.69200
C          2.00500        1.13300       -6.13100
C          0.13700        4.87000       -2.70600
C         -1.20700        4.39700       -2.99900
C         -1.84800        3.65600       -1.97700
C         -1.30500        3.43900       -0.71500
C         -0.02900        3.93400       -0.43400
C          0.66500        4.59900       -1.43800
C         -1.90200        4.63300       -4.29700
C          2.76400        5.84000       -3.34900
C          3.48700        4.68000       -3.06000
C          4.77800        4.71600       -2.62200
C          5.38100        5.94100       -2.37300
C          4.69000        7.14000       -2.69800
C          3.41400        7.07000       -3.18200
C          1.22800        4.66700       -5.39800
C          1.89800        5.40600       -6.51900
C          2.69400        8.07400       -7.42100
C          3.17900        7.83400       -8.63900
C          4.27000        8.63200       -9.05200
C          4.86000        9.52900       -8.23100
C          4.39100        9.65000       -6.90500
C          3.30000        8.94200       -6.52300
C          2.67400        6.76900       -9.61900
C          0.00300        7.09200       -7.97200
C         -0.34400        8.32900       -8.62000
C         -1.34700        8.32700       -9.60300
C         -2.04200        7.20300       -9.90200
C         -1.70600        6.00200       -9.28500
C         -0.72900        5.93200       -8.32100
C         -0.12100        8.51000       -2.59000
C         -1.25400        7.90200       -3.02800
C         -2.42700        8.53500       -3.60800
C         -2.11200        9.81400       -4.42800
C         -0.98900        9.59100       -5.33600
C          0.30400       10.00900       -5.05900
C          0.79400       10.61000       -3.77700
C          0.13600       10.00400       -2.51900
