104
C:\Users\Javier\OneDrive - Universitat de Barcelona\Tesi\4 - Contribucions\Treballs\3-PhD\chapter_1\cif\pc2p\LAWKUQ.pc2p.pdb
Ru         9.13200        2.31500        5.15800
Cl         1.41500        7.71400        3.26700
Cl         4.34300        9.66100        0.12500
P          7.62200        1.01800        6.25000
P          7.33300        2.55500        3.60900
O         11.68900        1.73000        2.67100
O         10.45900       -0.06800        2.07100
O         12.00000        0.64000        7.51600
O         10.52200       -0.83000        6.64300
O          6.70500        4.03400        7.42100
O          6.95600        5.85700        6.15200
O         11.66800        4.39500        6.26700
O         11.31800        3.57500        8.33000
O         10.48900        3.67000        4.00500
C         10.27400        0.64700        4.28600
C         10.93500        1.16300        5.45300
C         10.87300        0.85200        2.98100
C         11.03500        0.01300        0.74400
C         11.21000        0.33300        6.63300
C         10.80200       -1.70700        7.75500
C          8.65400        4.26000        6.03200
C          9.50700        3.50700        6.91100
C          7.34400        4.66200        6.59800
C          5.72100        6.35300        6.74300
C         10.92900        3.87400        7.09500
C         12.71500        3.79500        8.62100
C          5.91700        1.47600        5.72800
C          5.88500        1.58000        4.20900
C          7.56100       -0.78600        5.88900
C          7.65600       -1.25900        4.57200
C          7.60500       -2.61700        4.30800
C          7.47200       -3.53800        5.33500
C          7.32500       -3.09100        6.62600
C          7.38200       -1.73700        6.89400
C          7.50200        1.02700        8.07700
C          6.26800        1.09500        8.72700
C          6.21000        1.03700       10.09100
C          7.35600        0.90800       10.87200
C          8.56700        0.84100       10.23400
C          8.65800        0.92200        8.85800
C          7.39200        2.09000        1.84500
C          6.27700        1.50200        1.21400
C          6.30800        1.24200       -0.13600
C          7.38400        1.57200       -0.90200
C          8.49600        2.13400       -0.30100
C          8.49200        2.39100        1.07100
C          6.70800        4.26900        3.39500
C          5.43700        4.66500        3.72200
C          5.02100        5.97200        3.52400
C          5.90000        6.89100        2.99600
C          7.18800        6.52700        2.68000
C          7.60400        5.20900        2.88200
C          2.79400        8.93500        1.81100
C          3.77000        9.82200        1.75600
C          4.25400       10.60600        2.78700
C          3.80600       10.52900        4.14000
C          2.81200        9.65500        4.16200
C          2.37300        9.11500        3.05800
H         10.79600        3.21700        3.22700
H         11.23100        3.91200        4.54700
H          9.87500       -0.20800        4.40700
H         11.70000        1.67000        5.21100
H         10.50100        0.58900        0.15800
H         11.07600       -0.85500        0.36700
H         11.92500        0.41400        0.74800
H         13.22900        2.97600        8.45600
H         12.81300        4.04700        9.53000
H         13.09500        4.48300        8.11100
H          9.10800        4.97800        5.60700
H          9.07800        3.19300        7.69700
H         11.54800       -2.28700        7.55000
H         10.03800       -2.24000        7.94200
H         11.06600       -1.18700        8.52900
H          4.98500        6.07400        6.25900
H          5.73600        7.30500        6.74700
H          5.64800        6.03200        7.66000
H          5.30700        0.81000        6.01700
H          5.68100        2.31200        6.10900
H          5.08200        2.00900        3.94200
H          5.91700        0.70600        3.83200
H          7.75500       -0.64000        3.85700
H          7.66300       -2.92200        3.41000
H          7.48200       -4.47100        5.14800
H          7.18900       -3.71000        7.33000
H          7.29600       -1.44400        7.79600
H          5.46900        1.18300        8.22100
H          5.36300        1.09700       10.51600
H          7.30200        0.86500       11.82200
H          9.36000        0.72900       10.74700
H          9.51000        0.90900        8.43700
H          5.50500        1.28300        1.72000
H          5.55900        0.82400       -0.55400
H          7.37200        1.41800       -1.83700
H          9.25900        2.34900       -0.82100
H          9.26000        2.77200        1.47400
H          4.83100        4.02800        4.09200
H          4.13400        6.22900        3.75500
H          5.60800        7.78000        2.84200
H          7.79800        7.17500        2.33600
H          8.49500        4.95000        2.66600
H          2.41500        8.29500        1.09600
H          4.98200       11.25200        2.51500
H          4.16900       11.03900        4.91700
H          2.40600        9.39100        5.03500
