198
C:\Users\Javier\OneDrive - Universitat de Barcelona\Tesi\4 - Contribucions\Treballs\3-PhD\chapter_1\cif\pc2p\LAYJIG.pc2p.pdb
Pd        31.21400        7.88000       15.93300
Pd        25.62300        4.05600        6.86000
S         32.24200        9.82300       16.91100
S         29.57700        9.17100       14.73200
S         33.36100        9.29000       14.14200
S         28.61100        8.74000       17.59600
S         27.02700        5.71500        7.88400
S         27.86900        5.43400        4.97600
P         32.68500        6.58800       17.09000
P         30.43500        5.95000       15.00000
P         27.01900        2.38100        7.51500
O         33.91100        8.67600       11.55000
O         28.11700        8.13100       20.22900
O         28.33000        4.88300        2.34700
N         34.61400       10.71300       15.90000
N         35.43000       10.66800       14.78500
N         35.58200        9.79100       12.61200
H         36.40700       10.09000       12.54600
N         27.05200        9.45100       15.66800
N         26.24600        9.34800       16.80000
N         26.30100        8.86500       19.09100
H         25.44100        9.05400       19.14000
N         29.10500        6.93900        6.67500
N         29.79100        7.07000        5.46000
N         29.82300        6.33500        3.24300
H         30.52800        6.84100        3.09300
C         33.49500       10.03100       15.71800
C         34.91900        9.97400       13.80200
C         35.03100        9.16900       11.52400
C         35.90100        9.12000       10.29600
H         35.42500        8.65900        9.57700
H         36.72700        8.63700       10.50100
H         36.11900       10.03300       10.01300
C         28.30100        9.17900       15.93600
C         26.91800        8.99000       17.86700
C         26.93300        8.46500       20.23200
C         26.07700        8.44400       21.46200
H         26.61000        8.14400       22.22700
H         25.32700        7.82900       21.32700
H         25.73300        9.34500       21.63700
C         32.23300        4.82500       16.81700
H         33.03800        4.25700       16.92000
H         31.56900        4.54400       17.49300
C         31.64900        4.64000       15.40700
H         31.20500        3.75600       15.35000
H         32.38400        4.65800       14.74400
C         34.43800        6.74700       16.63000
C         35.00000        5.91400       15.66600
H         34.48100        5.22500       15.26500
C         36.32000        6.10000       15.29600
H         36.70000        5.52700       14.64200
C         37.10000        7.10600       15.85900
H         38.00200        7.22600       15.59200
C         36.53500        7.92400       16.81300
H         37.05900        8.61200       17.20800
C         35.21500        7.75500       17.20300
H         34.83700        8.32700       17.86100
C         32.65300        6.76800       18.90400
C         31.65400        7.49800       19.53800
H         31.00400        7.95900       19.02200
C         31.60500        7.55600       20.92600
H         30.92000        8.05000       21.35900
C         32.56300        6.89100       21.68000
H         32.53200        6.94200       22.62700
C         33.55800        6.15600       21.06700
H         34.20300        5.69600       21.59000
C         33.60800        6.09300       19.67700
H         34.29500        5.59100       19.24900
C         28.82200        5.40100       15.63200
C         27.67700        6.11100       15.24900
H         27.75300        6.84300       14.65000
C         26.43300        5.74600       15.74400
H         25.65800        6.22700       15.48200
C         26.32900        4.68400       16.61600
H         25.48100        4.42900       16.95300
C         27.46700        3.98200       17.00800
H         27.38700        3.25700       17.61700
C         28.70400        4.33000       16.51700
H         29.47300        3.84100       16.78000
C         30.28500        5.94000       13.19200
C         31.15500        6.72100       12.44700
H         31.80900        7.25100       12.89100
C         31.08500        6.73700       11.05400
H         31.69900        7.25600       10.55100
C         30.10800        5.98700       10.41200
H         30.02700        6.02300        9.46700
C         29.25200        5.19000       11.14600
H         28.59900        4.65800       10.70400
C         29.34200        5.16600       12.52800
H         28.75200        4.61200       13.02600
C         28.09200        6.12000        6.56900
C         29.26300        6.34900        4.50900
C         29.33600        5.57200        2.21300
C         30.12100        5.64500        0.93200
H         29.69800        5.07100        0.25800
H         31.04000        5.34300        1.09200
H         30.13200        6.57100        0.60900
C         26.38400        0.81300        6.80100
H         26.65000        0.74100        5.85000
H         26.76100        0.04000        7.29100
C         28.73300        2.57500        6.96500
C         29.16700        2.01400        5.75800
H         28.60200        1.42300        5.27400
C         30.43400        2.33400        5.28000
H         30.73400        1.95800        4.46200
C         31.25600        3.19200        5.98200
H         32.11500        3.40400        5.64400
C         30.83000        3.74700        7.17700
H         31.39600        4.34200        7.65600
C         29.57300        3.42600        7.66800
H         29.28600        3.79300        8.49500
C         27.08200        2.14000        9.31200
C         27.98400        1.23400        9.87400
H         28.57500        0.74600        9.31300
C         28.02100        1.04500       11.25400
H         28.64100        0.43400       11.63500
C         27.15300        1.74700       12.06300
H         27.18300        1.62600       13.00400
C         26.24300        2.62000       11.51700
H         25.63500        3.08500       12.07900
C         26.21300        2.82500       10.14700
H         25.58900        3.44000        9.77700
N         38.15600        7.88300       20.55800
N         32.53200        3.19700       11.14800
N         26.20800        7.53200        2.07400
O         40.22900        7.11600       20.10500
O         33.63500        4.38700       12.76600
O         27.40400        8.90500        3.45500
O         29.11900        2.10000        1.99100
C         36.78100        7.55400       20.76300
H         36.64300        6.60400       20.56600
H         36.22500        8.09700       20.16600
H         36.53800        7.73700       21.69400
C         38.57600        9.24600       20.78200
H         39.54000        9.32400       20.60800
H         38.39100        9.49700       21.71100
H         38.08600        9.84200       20.17700
C         39.01700        6.92600       20.22100
C         31.42600        2.28800       10.84700
H         30.90300        2.13200       11.65900
H         31.78300        1.43700       10.51800
H         30.85200        2.68800       10.16100
C         33.41800        3.58100       10.07200
H         34.10700        4.18800       10.41600
H         32.90600        4.03300        9.37100
H         33.84300        2.78000        9.70000
C         32.71500        3.65300       12.37500
H         32.07500        3.39100       13.02600
C         26.88100        7.89800        0.84000
H         27.57800        8.56300        1.03200
H         26.22800        8.27800        0.21400
H         27.29100        7.10200        0.44200
C         25.13900        6.55500        1.96100
H         24.76500        6.38000        2.84800
H         25.49800        5.72200        1.58600
H         24.44000        6.90400        1.37200
C         26.51800        8.08100        3.24200
H         26.00200        7.80700        3.99300
S         24.21900        5.71500        5.83600
S         23.37700        5.43400        8.74400
P         24.22700        2.38100        6.20500
O         22.91600        4.88300       11.37300
N         22.14100        6.93900        7.04500
N         21.45500        7.07000        8.26000
N         21.42300        6.33500       10.47700
H         20.71800        6.84100       10.62800
C         23.15400        6.12000        7.15100
C         21.98300        6.34900        9.21100
C         21.90900        5.57200       11.50800
C         21.12500        5.64500       12.78800
H         21.54800        5.07100       13.46200
H         20.20500        5.34300       12.62800
H         21.11400        6.57100       13.11100
C         24.86200        0.81300        6.91900
H         24.59600        0.74100        7.87000
H         24.48500        0.04000        6.42900
C         22.51300        2.57500        6.75500
C         22.07800        2.01400        7.96200
H         22.64400        1.42300        8.44600
C         20.81200        2.33400        8.44000
H         20.51200        1.95800        9.25800
C         19.99000        3.19200        7.73800
H         19.13100        3.40400        8.07600
C         20.41500        3.74700        6.54300
H         19.85000        4.34200        6.06400
C         21.67200        3.42600        6.05200
H         21.96000        3.79300        5.22500
C         24.16400        2.14000        4.40800
C         23.26200        1.23400        3.84600
H         22.67100        0.74600        4.40700
C         23.22500        1.04500        2.46600
H         22.60500        0.43400        2.08500
C         24.09300        1.74700        1.65700
H         24.06300        1.62600        0.71600
C         25.00300        2.62000        2.20300
H         25.61100        3.08500        1.64100
C         25.03300        2.82500        3.57400
H         25.65700        3.44000        3.94300
