154
C:\Users\Javier\OneDrive - Universitat de Barcelona\Tesi\4 - Contribucions\Treballs\3-PhD\chapter_1\cif\pc2p\LEBBEA.pc2p.pdb
Pd         4.63900        1.02200        6.35300
Ni         4.10900        2.27200        3.92800
S          2.95900        2.64200        5.71800
S          5.97700        2.47800        4.99600
P          3.23500       -0.39400        7.42900
P          6.29300       -0.10700        7.42000
O          0.34400        1.24300        3.09700
O          6.97400        1.04100        1.44000
N          2.57200        1.79200        3.03000
N          5.00800        1.73700        2.42100
C          4.20200       -1.25800        8.72000
H          4.31800       -0.67000        9.50700
H          3.72600       -2.07500        9.01000
C          5.56700       -1.62600        8.13100
H          5.46000       -2.31500        7.42700
H          6.15700       -1.98700        8.83900
C          2.56500       -1.63800        6.29900
C          2.06900       -2.85500        6.76400
H          2.14900       -3.08300        7.68200
C          1.45400       -3.73700        5.87700
H          1.10800       -4.56200        6.19400
C          1.34700       -3.41700        4.55600
H          0.92900       -4.02500        3.95700
C          1.83800       -2.22400        4.07900
H          1.75000       -2.00600        3.16000
C          2.46000       -1.34100        4.94100
H          2.81800       -0.52800        4.60500
C          1.80100        0.31900        8.28700
C          0.49900       -0.10600        8.03000
H          0.34200       -0.78900        7.38800
C         -0.56700        0.46200        8.70600
H         -1.45200        0.16800        8.52800
C         -0.34600        1.45100        9.63600
H         -1.08000        1.84500       10.09200
C          0.93700        1.86800        9.90200
H          1.08700        2.53600       10.55800
C          2.01000        1.32200        9.22000
H          2.89100        1.63500        9.39300
C          7.83700       -0.57000        6.58300
C          8.14600       -1.89200        6.29300
H          7.57400       -2.59600        6.57100
C          9.32700       -2.16800        5.57900
H          9.56100       -3.06800        5.38700
C         10.14200       -1.14800        5.15600
H         10.92400       -1.34500        4.65400
C          9.83200        0.15300        5.45300
H         10.40000        0.85700        5.16000
C          8.69300        0.44400        6.17700
H          8.49600        1.34600        6.40300
C          6.86800        0.88400        8.83700
C          6.64600        2.25000        8.87900
H          6.15200        2.67000        8.18600
C          7.14300        3.01200        9.93100
H          7.00500        3.95200        9.94300
C          7.83200        2.40500       10.95000
H          8.16500        2.92300       11.67300
C          8.04000        1.04600       10.92800
H          8.50900        0.63100       11.64200
C          7.57300        0.28100        9.87800
H          7.73400       -0.65500        9.86600
C          2.78100        1.21500        1.68300
H          2.10800        1.57400        1.05200
H          2.68300        0.23100        1.71600
C          4.17600        1.58100        1.22100
H          4.54300        0.86800        0.63900
H          4.15500        2.42600        0.70600
C          1.39100        1.66600        3.62000
C          1.35500        2.06100        5.07800
H          1.06000        1.28200        5.61300
H          0.68500        2.77900        5.19700
C          6.29100        1.45300        2.40900
C          6.99600        1.60000        3.75500
H          7.84200        2.09400        3.62500
H          7.22000        0.69900        4.10100
Pd        -1.90400        6.21400       -0.84300
Ni        -2.33200        7.86100       -3.07400
S         -3.46700        7.99900       -1.25800
S         -0.46900        7.75500       -1.99500
P         -3.30800        4.60300       -0.06900
P         -0.26900        4.93700        0.03300
O         -6.17700        7.43400       -4.08500
O          0.37900        6.61000       -5.70800
N         -3.88600        7.69000       -4.04800
N         -1.44900        7.49600       -4.64800
C         -2.30800        3.32300        0.80700
H         -2.25200        3.55200        1.76900
H         -2.75600        2.44500        0.72600
C         -0.90000        3.22700        0.23100
H         -0.92000        2.76600       -0.64600
H         -0.31400        2.71500        0.84100
C         -4.13700        3.78900       -1.46400
C         -4.82200        2.58400       -1.28700
H         -4.82400        2.15800       -0.43800
C         -5.49700        2.01200       -2.34900
H         -5.96600        1.19600       -2.22400
C         -5.49500        2.61300       -3.58600
H         -5.95900        2.20600       -4.30800
C         -4.82400        3.80300       -3.78400
H         -4.83200        4.21800       -4.63900
C         -4.14100        4.38900       -2.73100
H         -3.67100        5.20300       -2.86800
C         -4.60200        5.01000        1.13800
C         -5.95100        4.92400        0.83600
H         -6.22700        4.65500       -0.03200
C         -6.90100        5.23000        1.79800
H         -7.82300        5.17100        1.58300
C         -6.52000        5.61900        3.06300
H         -7.17800        5.81700        3.72000
C         -5.18600        5.71800        3.37000
H         -4.92200        5.98600        4.24200
C         -4.22600        5.43300        2.42500
H         -3.30600        5.52200        2.64400
C          1.35300        4.88900       -0.76500
C          1.74700        3.83400       -1.57600
H          1.20100        3.06000       -1.65500
C          2.95400        3.92000       -2.27500
H          3.24400        3.19200       -2.81100
C          3.72400        5.05200       -2.19100
H          4.52500        5.11800       -2.69900
C          3.34400        6.09600       -1.37700
H          3.88800        6.87200       -1.31100
C          2.16800        6.01100       -0.65800
H          1.91300        6.72700       -0.08700
C          0.08500        5.56300        1.70300
C         -0.57500        6.68800        2.19700
H         -1.23900        7.11400        1.66700
C         -0.27400        7.18800        3.44800
H         -0.74600        7.94100        3.78400
C          0.70500        6.59600        4.20800
H          0.92400        6.95300        5.06100
C          1.37300        5.48600        3.73200
H          2.04600        5.07600        4.26200
C          1.06800        4.96700        2.48700
H          1.53000        4.20100        2.16800
C         -3.69700        7.43900       -5.48000
H         -4.27000        8.05200       -6.00800
H         -3.95800        6.50900       -5.69600
C         -2.25900        7.66000       -5.83300
H         -1.97900        7.00800       -6.52300
H         -2.13900        8.57200       -6.19900
C         -5.08500        7.59100       -3.49100
C         -5.10600        7.64300       -1.97900
H         -5.43000        6.77600       -1.63200
H         -5.74500        8.34100       -1.69100
C         -0.22500        7.00800       -4.68100
C          0.44900        6.88400       -3.33000
H          1.36400        7.25700       -3.38900
H          0.52800        5.92500       -3.09400
O         -0.49000       -0.72200        1.54900
C         -2.00900       -0.33000        1.64500
O         -6.95400        6.54600       -6.42000
C         -8.22400        5.97900       -5.96000
O         -5.27600        4.76700       -7.51200
C         -4.32200        5.37600       -8.45400
