110
C:\Users\Javier\OneDrive - Universitat de Barcelona\Tesi\4 - Contribucions\Treballs\3-PhD\chapter_1\cif\pc2p\LEHZON.pc2p.pdb
Ir         5.40900       15.91400        8.66200
Rh         5.63500       14.97700        4.92600
O          6.63700       13.46700        4.03600
O          7.84900       13.11200        4.71000
P          3.82900       14.23900        3.66400
P          6.17300       16.26500        3.08200
N          5.28800       13.68800        6.50400
C          5.05200       12.38500        6.37700
C          4.53200       11.88600        7.55500
C          4.47800       12.97500        8.38600
N          4.95900       14.05500        7.77500
N          7.20400       15.66500        6.07500
C          8.48200       15.88200        5.70500
C          9.15400       16.54000        6.69100
C          8.24800       16.71300        7.68500
N          7.05500       16.17300        7.32300
N          4.43000       16.45500        5.76500
C          3.49800       17.16200        5.09900
C          2.70200       17.84600        5.98500
C          3.20700       17.46800        7.21500
N          4.26200       16.66000        7.10800
C          5.09900       15.71500        1.69200
C          3.72500       15.24900        2.13900
C          7.84200       16.11300        2.32900
C          8.27600       14.88300        1.84700
C          9.49700       14.78200        1.22500
C         10.30600       15.86100        1.04100
C          9.89000       17.06300        1.53500
C          8.66600       17.20600        2.16100
C          5.94800       18.05400        3.29700
C          5.13300       18.80300        2.48300
C          4.94600       20.15400        2.71000
C          5.59400       20.77600        3.75100
C          6.45000       20.05700        4.55000
C          6.60700       18.70000        4.34800
C          3.88700       12.52100        3.03700
C          3.30700       11.50700        3.76400
C          3.35800       10.18400        3.31400
C          3.94500        9.88100        2.13400
C          4.49400       10.89400        1.37800
C          4.48000       12.21100        1.83400
C          2.18100       14.30200        4.44000
C          1.04300       14.40500        3.65100
C         -0.19900       14.36100        4.22800
C         -0.33100       14.17100        5.55800
C          0.77800       14.06700        6.36700
C          2.04400       14.16200        5.79300
C          4.24200       15.77800       10.47800
C          4.56000       17.17200       10.27000
C          5.98000       17.30000       10.27000
C          6.53000       16.01000       10.55500
C          5.49100       15.09700       10.70200
C          2.84500       15.23000       10.64500
C          3.60700       18.30700       10.30000
C          6.71400       18.61600       10.24500
C          7.95900       15.70600       10.89200
C          5.72800       13.69300       11.18900
H          5.22300       11.85500        5.56800
H          4.25500       10.88500        7.75000
H          3.94300       12.84900        9.27700
H          8.69500       15.76900        4.81900
H         10.23500       16.92500        6.59700
H          8.24000       17.44800        8.43800
H          3.21000       17.20500        4.00300
H          1.82300       18.30800        5.72500
H          2.85600       17.80300        8.06700
H          5.71000       14.93200        1.30000
H          5.14900       16.28500        1.00600
H          3.24200       16.04800        2.30100
H          3.08700       14.90100        1.40500
H          7.67300       14.15600        1.81900
H          9.78200       13.91200        0.87900
H         11.37000       15.90100        0.85400
H         10.38000       17.80600        1.46800
H          8.66000       17.91700        2.61100
H          4.82500       18.44300        1.75000
H          4.52100       20.61900        2.18600
H          5.54700       21.89000        3.77900
H          6.94100       20.59600        5.25900
H          7.00900       18.20400        4.97700
H          2.93500       11.32500        4.65000
H          2.91700        9.37300        3.87100
H          3.98100        8.91500        1.42500
H          4.64800       10.70300        0.57700
H          5.04800       12.83100        1.48300
H          1.16600       14.69900        2.76300
H         -1.06100       14.38300        3.78100
H         -1.04900       14.37300        5.99300
H          0.77400       14.14100        7.16800
H          2.73900       14.35900        6.38200
H          2.88700       14.25800       10.77000
H          2.31200       15.43400        9.84900
H          2.42900       15.64100       11.43100
H          2.68600       17.97200       10.30300
H          3.75000       18.86300        9.50400
H          3.76200       18.84200       11.10600
H          7.67900       18.45000       10.24000
H          6.47500       19.13200       11.04400
H          6.46400       19.12200        9.44400
H          8.51300       16.49200       10.70500
H          8.27600       14.94900       10.35500
H          8.02100       15.48000       11.84300
H          4.87600       13.21000       11.22100
H          6.11900       13.72700       12.08700
H          6.34300       13.22900       10.58200
B          1.58600        3.99100        1.36800
F          0.37500        4.51100        1.02800
F          1.70900        3.88700        2.71300
F          2.52800        4.77600        0.83400
F          1.69100        2.75700        0.80100
