107
C:\Users\Javier\OneDrive - Universitat de Barcelona\Tesi\4 - Contribucions\Treballs\3-PhD\chapter_1\cif\pc2p\LEMLOE.pc2p.pdb
Ru         3.49900        4.54000        1.88700
I          2.60000        5.32600        4.27700
P          1.67400        5.41400        0.82600
P          2.18600        2.63600        2.06200
C          0.22500        4.35000        1.26000
C          0.71000        2.91300        1.13000
C          1.56300        5.48400       -0.99900
C          2.28900        4.55800       -1.77100
C          2.19800        4.47700       -3.18200
C          1.41200        5.39100       -3.77200
C          0.74300        6.31200       -3.03100
C          0.81000        6.35400       -1.66800
C          1.14000        7.05900        1.24600
C         -0.11100        7.48000        1.69900
C         -0.42700        8.70900        2.11600
C          0.53800        9.71900        1.97000
C          1.75600        9.43300        1.51200
C          2.09500        8.12000        1.18500
C          2.72700        1.00900        1.44800
C          2.57700       -0.09900        2.22200
C          3.00200       -1.41900        1.69200
C          3.47900       -1.43400        0.44400
C          3.63700       -0.30500       -0.35300
C          3.26100        0.85600        0.19600
C          1.60900        2.26400        3.71900
C          0.22300        2.27100        4.01700
C         -0.15300        1.97600        5.34500
C          0.73600        1.73600        6.29400
C          2.04300        1.71900        6.02300
C          2.46600        1.98500        4.78800
C          5.32200        3.61700        1.14300
C          4.95200        4.63200        0.29500
C          5.06700        5.85600        1.07300
C          5.42400        5.46000        2.35000
C          5.61000        4.10700        2.41300
C          6.22100        3.36300        3.55400
C          7.59500        3.70300        3.92600
C          8.52000        3.26600        2.84600
C          8.54300        1.71100        2.74100
C          7.18500        1.18300        2.45800
C          6.15500        1.80900        3.42200
C          7.88400        5.18100        4.33600
C          6.98100        5.67100        5.51500
C          9.31000        5.51500        4.71200
C          7.09800       -0.29800        2.50100
C          3.09200        7.37100        4.47900
C          2.14900        8.07700        5.31000
H         -0.50300        4.51400        0.65600
H         -0.05900        4.52600        2.16000
H          0.02400        2.32200        1.45000
H          0.88700        2.72800        0.20400
H          2.87700        3.95000       -1.31800
H          2.67000        3.80800       -3.68400
H          1.32300        5.39400       -4.72800
H          0.19900        6.96000       -3.48600
H          0.31000        7.01800       -1.18700
H         -0.81200        6.82300        1.71100
H         -1.28500        8.89600        2.50300
H          0.31800       10.62400        2.20400
H          2.40200       10.13400        1.40300
H          2.99500        7.92200        0.91400
H          2.20100       -0.02800        3.10200
H          2.93600       -2.21900        2.22000
H          3.72900       -2.28400        0.07000
H          3.99500       -0.35500       -1.24200
H          3.37300        1.64800       -0.33400
H         -0.43300        2.46600        3.34300
H         -1.08700        1.95200        5.56900
H          0.43700        1.57300        7.19200
H          2.67600        1.51100        6.71500
H          3.41200        1.98700        4.62300
H          5.37200        2.69100        0.89400
H          4.67700        4.55000       -0.62200
H          4.92400        6.75500        0.76500
H          5.52700        6.05700        3.09500
H          5.64600        3.67500        4.25700
H          7.74400        3.22000        4.74400
H          8.22400        3.63400        2.01000
H          9.40500        3.58500        3.04000
H          8.85600        1.34500        3.57200
H          9.13800        1.45100        2.03400
H          6.98200        1.43700        1.55500
H          5.27700        1.57500        3.10900
H          6.29500        1.43100        4.29300
H          7.68500        5.63900        3.51500
H          6.06000        5.49200        5.31000
H          7.10200        6.61500        5.64000
H          7.22400        5.20900        6.32000
H          9.89700        5.25500        3.99800
H          9.54800        5.04000        5.51100
H          9.38900        6.45900        4.86300
H          7.74600       -0.67300        1.90000
H          6.21800       -0.57700        2.23700
H          7.27600       -0.60300        3.39400
H          3.10100        7.77400        3.60800
H          3.96400        7.44200        4.87300
H          2.40300        9.00100        5.36500
H          2.14500        7.69300        6.18900
H          1.27200        8.00800        4.92500
C          5.40000       10.92200        3.65600
S          6.06600        9.50000        2.71100
O          5.20100        9.36300        1.60600
O          6.03400        8.40900        3.63400
O          7.32600        9.94900        2.46400
F          5.35500       11.97800        2.93900
F          4.09200       10.69100        3.92000
F          5.98700       11.12900        4.75900
