55
C:\Users\Javier\OneDrive - Universitat de Barcelona\Tesi\4 - Contribucions\Treballs\3-PhD\chapter_1\cif\pc2p\LIMVAE01.pc2p.pdb
Pd         2.20000        2.91900       12.74300
P          3.74400        2.81100       14.34700
P          0.73400        2.39200       14.34200
Cl         3.85100        3.55000       11.19400
Cl         0.52600        2.72000       11.09400
C          2.99100        1.87100       15.72700
H          2.95200        0.92800       15.50200
H          3.52900        1.97100       16.52900
C          1.60000        2.40000       15.97000
H          1.64000        3.30200       16.32600
H          1.13000        1.83800       16.60600
C          5.22300        1.88400       13.85600
C          6.45400        2.48000       13.79700
H          6.54900        3.37500       14.03000
C          7.57400        1.74200       13.38600
H          8.41200        2.14500       13.34600
C          7.42300        0.43600       13.04700
H          8.16100       -0.05500       12.76500
C          6.19600       -0.16200       13.11600
H          6.11100       -1.06500       12.90500
C          5.08600        0.55600       13.49400
H          4.24700        0.15300       13.50500
C          4.28800        4.40200       15.01900
C          4.32300        5.50700       14.22500
H          4.04400        5.45000       13.34000
C          4.77500        6.72200       14.73100
H          4.81500        7.47500       14.18400
C          5.15600        6.79400       16.03900
H          5.44700        7.60800       16.38500
C          5.12100        5.71400       16.83600
H          5.39900        5.77800       17.72100
C          4.67000        4.50300       16.33900
H          4.62600        3.75800       16.89400
C          0.16300        0.68000       14.18000
C         -0.76600        0.15000       15.03900
H         -1.15400        0.69200       15.68900
C         -1.13000       -1.18500       14.94500
H         -1.77200       -1.52900       15.52300
C         -0.56400       -1.98500       14.02700
H         -0.83400       -2.87200       13.95300
C          0.40300       -1.49700       13.20600
H          0.82600       -2.05900       12.59600
C          0.75600       -0.16900       13.27900
H          1.41000        0.16100       12.70600
C         -0.67900        3.49300       14.57000
C         -1.09600        4.37800       13.57100
H         -0.67100        4.37100       12.74400
C         -2.12900        5.25900       13.80000
H         -2.39000        5.84500       13.12600
C         -2.77300        5.28300       14.99400
H         -3.48100        5.86800       15.13500
C         -2.36900        4.44200       15.98500
H         -2.80200        4.46400       16.80500
C         -1.33400        3.55900       15.79800
H         -1.06900        3.00100       16.49500
