84
C:\Users\Javier\OneDrive - Universitat de Barcelona\Tesi\4 - Contribucions\Treballs\3-PhD\chapter_1\cif\pc2p\LOKROS.pc2p.pdb
Rh         5.49200       13.83000        9.82000
Br         6.46700       15.00100        7.83500
Br         1.68800        7.86900        2.08500
P          3.66700       13.10200        8.71400
P          4.25300       15.60700       10.45000
C          6.42600       13.68600       11.79200
C          8.65500       14.43800       10.66800
C          3.59300       13.14600        6.91300
C          4.52100       17.21100        9.73600
C          2.85600       14.09700        6.20600
C          3.66100       17.82200        8.83200
C          2.98200       14.18600        4.81900
C          4.03500       19.00700        8.21000
C          3.84600       13.32700        4.14000
C          5.26800       19.58200        8.49200
C          4.58200       12.37600        4.84800
C          6.12800       18.96900        9.39600
C          4.45600       12.28500        6.23300
C          5.75400       17.78400       10.01900
C          5.48200       12.61300       11.61000
C          3.18000       11.36500        8.99100
C          3.92600       10.41200        9.67600
C          3.35000        9.16500        9.89700
C          2.10300        8.82200        9.43200
C          1.38100        9.74000        8.73200
C          1.93600       10.98800        8.52500
C          5.97900       11.80500       10.50800
C          4.92600       17.20400        9.54400
C          4.00200       13.29500        6.82000
C          4.41300       17.64500        8.32500
C          3.71600       14.48100        6.15500
C          4.80900       18.87800        7.80700
C          3.88300       14.56500        4.77800
C          5.71700       19.67000        8.50800
C          4.33800       13.46000        4.06500
C          6.23000       19.22900        9.72900
C          4.62400       12.27400        4.73000
C          5.83400       17.99600       10.24800
C          4.45500       12.19000        6.10700
C          7.17900       12.38900       10.03400
C          4.26300       16.03700       12.22100
C          5.15000       15.49700       13.19000
C          4.94300       15.85400       14.49900
C          3.94900       16.68600       14.90500
C          3.13900       17.26400       13.98900
C          3.31100       16.94000       12.66500
C          7.45500       13.56000       10.82200
C          2.17200       13.95400        9.48400
C          2.51000       15.04200       10.31100
C          2.48700       15.37800        9.92100
C          2.28700       14.17300        9.09100
C          6.38700       14.68100       12.91100
C          4.32700       12.24300       12.50600
C          5.39700       10.50700       10.07100
C          8.08600       11.84900        8.99200
F          2.02700       14.92300        6.85800
F          2.47100       17.26800        8.55900
F          2.27500       15.09900        4.14000
F          3.20600       19.59600        7.33800
F          3.96700       13.41300        2.80800
F          5.62900       20.72400        7.89300
F          5.41000       11.54900        4.19500
F          7.31800       19.52300        9.66900
F          5.16300       11.37300        6.91300
F          6.58400       17.19500       10.89200
F          4.03400        8.20700       10.55700
F          1.61100        7.59200        9.64700
F          0.15800        9.44600        8.27400
F          1.17700       11.84400        7.81200
F          3.54200       16.88400        7.64900
F          3.27800       15.54600        6.84300
F          4.31700       19.30200        6.63500
F          3.60800       15.70800        4.13600
F          6.09800       20.85600        8.01100
F          4.49900       13.54100        2.73700
F          7.10200       19.99000       10.40400
F          5.06100       11.21100        4.04300
F          6.32600       17.57200       11.41900
F          4.73100       11.04600        6.74700
F          5.76000       15.36000       15.46100
F          3.75500       16.92800       16.22700
F          2.15300       18.08600       14.35900
F          2.49500       17.54000       11.77800
O          1.12700       14.70800       13.03700
