76
C:\Users\Javier\OneDrive - Universitat de Barcelona\Tesi\4 - Contribucions\Treballs\3-PhD\chapter_1\cif\pc2p\LOQJUW.pc2p.pdb
Ru         2.79000        4.60600        5.31500
Cl        10.25400        1.59100        0.84900
Cl        10.07800        2.91500        3.42500
S         10.29200        5.19600       10.88400
P          1.71300        6.62900        4.94100
P          0.80800        3.65200        4.58100
F          8.33700        6.91200       11.01300
F          8.41000        5.84100        9.18000
F          7.71200        4.87400       10.95200
O         11.09400        6.18400       10.23900
O         10.34700        3.88000       10.30400
O         10.30000        5.20700       12.31000
N          2.20000        4.49500        7.14000
N          1.89100        4.35200        8.19000
N          3.65600        4.56100        3.33500
N          4.87700        3.91800        3.29600
N          3.89800        2.76600        5.77300
N          5.24300        2.82100        5.52900
N          4.68100        5.51800        6.03000
N          5.76000        5.22600        5.24700
C         -0.00100        6.35300        4.26400
C         -0.27500        4.91400        3.77500
C          8.61200        5.74200       10.47800
C         10.32600        3.13500        1.70000
C          3.30600        4.75100        2.04200
C          4.30000        4.23800        1.21100
C          5.25900        3.71800        2.01100
C          2.07800        5.42000        1.50100
C          2.44900        6.65300        0.66200
C          1.26700        4.47000        0.62800
C          6.51600        2.98900        1.64400
C          6.81200        3.15700        0.15500
C          6.42400        1.51600        2.03500
C          3.73200        1.73100        6.63000
C          4.95600        1.16200        6.96000
C          5.90900        1.89900        6.25700
C          2.40000        1.20700        7.07800
C          2.30900        1.08500        8.60100
C          2.11100       -0.14900        6.43700
C          7.39800        1.81500        6.32100
C          7.92100        2.91000        7.24700
C          7.86200        0.45500        6.78000
C          5.07200        6.46800        6.89000
C          6.39500        6.81500        6.62100
C          6.81000        6.01000        5.58800
C          4.27900        6.91400        8.06900
C          4.61700        8.34000        8.47700
C          4.57100        5.96500        9.23800
C          8.13700        5.94400        4.88300
C          8.01500        6.50600        3.45900
C          9.22200        6.64900        5.66600
C          1.33300        7.69700        6.37900
C          1.84000        9.00500        6.49300
C          1.53800        9.77500        7.59000
C          0.74300        9.28400        8.60300
C          0.23600        8.01200        8.52500
C          0.52300        7.21400        7.41000
C          2.55000        7.81900        3.83400
C          1.83100        8.84100        3.21600
C          2.47400        9.79500        2.44800
C          3.84300        9.74200        2.29400
C          4.57400        8.73500        2.92500
C          3.92500        7.77600        3.68500
C         -0.36800        2.99000        5.80900
C         -0.68400        1.64500        5.93100
C         -1.55900        1.20400        6.89700
C         -2.18000        2.09900        7.75100
C         -1.92100        3.44200        7.60600
C         -1.03000        3.87700        6.63700
C          0.94100        2.28900        3.38300
C         -0.21100        1.78800        2.77800
C         -0.13800        0.77300        1.85200
C          1.09700        0.26900        1.50800
C          2.24200        0.74800        2.10800
C          2.16400        1.73800        3.05000
B          5.76800        3.87000        4.54800
