87
C:\Users\Javier\OneDrive - Universitat de Barcelona\Tesi\4 - Contribucions\Treballs\3-PhD\chapter_1\cif\pc2p\LUQZED.pc2p.pdb
Ru         3.15900        2.71000        4.27300
Cl         4.48900        3.89200        5.90300
N          4.94100        0.50900        3.20200
N          4.54200        1.04800        4.39700
N          4.97400        2.48700        1.86200
N          4.45200        3.42900        2.71200
O          2.51800        0.60400        0.76900
O          2.26000        1.54300        2.75900
P          1.60000        1.92100        5.73000
P          1.49400        4.22100        3.85600
C          4.50700        1.12000        1.95800
H          4.88500        0.64200        1.26600
C          5.71100       -0.59400        3.38300
C          5.81100       -0.78100        4.73300
H          6.27900       -1.47700        5.17900
C          5.08200        0.26400        5.33000
C          6.35400       -1.34100        2.25600
H          6.85000       -2.10600        2.61300
H          6.97000       -0.74600        1.77900
H          5.66200       -1.65800        1.63800
C          4.93900        0.52900        6.78900
H          4.81400        1.49000        6.93500
H          5.74600        0.22900        7.25600
H          4.16100        0.04300        7.13500
C          5.81100        3.05700        0.94300
C          5.80300        4.39500        1.20900
H          6.28400        5.06600        0.74000
C          4.95100        4.59500        2.30500
C          6.58600        2.25500       -0.03900
H          7.10500        2.85500       -0.61400
H          5.97000        1.72700       -0.58900
H          7.19400        1.65300        0.43800
C          4.62100        5.88100        2.97400
H          3.90000        6.32900        2.48300
H          5.41400        6.45700        2.98600
H          4.33200        5.70500        3.89400
C          2.96600        1.07300        1.80300
C         -0.04000        2.14200        4.90000
H         -0.32400        1.27600        4.51400
H         -0.71200        2.40400        5.58100
C         -0.02300        3.18500        3.80300
H         -0.81800        3.76700        3.89600
H         -0.07700        2.73300        2.92300
C          1.47500        0.12100        6.09900
C          1.83200       -0.77800        5.10000
H          2.23500       -0.45800        4.30100
C          1.60400       -2.14000        5.26000
H          1.84500       -2.74600        4.56900
C          1.02500       -2.61300        6.42500
H          0.86500       -3.54300        6.53400
C          0.68300       -1.73000        7.42600
H          0.29300       -2.05500        8.22900
C          0.90100       -0.37100        7.26700
H          0.65700        0.22900        7.96300
C          1.39800        2.69400        7.38200
C          2.27400        2.36000        8.41200
H          2.96700        1.73200        8.25000
C          2.14900        2.93000        9.66900
H          2.73500        2.67200       10.37000
C          1.17200        3.87200        9.89800
H          1.08700        4.26600       10.75800
C          0.32100        4.24000        8.88700
H         -0.34000        4.90300        9.04400
C          0.42000        3.64800        7.63100
H         -0.18400        3.89700        6.94000
C          1.44200        5.03000        2.20300
C          1.69400        4.25300        1.07500
H          1.87400        3.32600        1.17500
C          1.68400        4.81600       -0.19300
H          1.86700        4.27100       -0.95100
C          1.41400        6.15700       -0.36200
H          1.40900        6.53800       -1.23200
C          1.15000        6.93700        0.73900
H          0.95600        7.86000        0.62800
C          1.16600        6.38300        2.01600
H          0.98600        6.93500        2.76900
C          1.06100        5.61500        4.95800
C          2.03700        6.26200        5.69400
H          2.93400        5.95000        5.66600
C          1.71700        7.36900        6.47600
H          2.39600        7.80400        6.97800
C          0.42800        7.83500        6.52600
H          0.21500        8.60100        7.04500
C         -0.55100        7.18600        5.82000
H         -1.44700        7.50100        5.86100
C         -0.24800        6.07900        5.04900
H         -0.93900        5.63100        4.57600
