61
C:\Users\Javier\OneDrive - Universitat de Barcelona\Tesi\4 - Contribucions\Treballs\3-PhD\chapter_1\cif\pc2p\LUTBOT.pc2p.pdb
Pd         4.49900        3.03100       10.01700
I          6.46100        3.85300       11.59200
P          2.97900        4.64400       10.76600
P          2.87000        2.29900        8.64000
C          5.76600        1.61800        9.23000
C          6.29600        1.71500        7.93700
H          6.07200        2.47100        7.40600
C          7.12500        0.76100        7.40800
H          7.46400        0.86000        6.52600
C          7.47400       -0.36800        8.17600
H          8.02800       -1.04700        7.80700
C          7.00400       -0.47500        9.46600
H          7.25200       -1.22000       10.00000
C          6.17000        0.50500        9.99000
H          5.86400        0.42100       10.88600
C          1.53900        4.59600        9.61100
H          0.72800        4.91000       10.08500
H          1.70600        5.20900        8.85200
C          1.29800        3.17300        9.07600
H          0.72400        3.22400        8.27100
H          0.81500        2.64700        9.76100
C          3.55100        6.39600       10.69400
H          4.21100        6.51800       11.43500
C          4.28900        6.68800        9.38700
H          4.64800        7.60100        9.41100
H          3.66800        6.60000        8.63400
H          5.02600        6.05100        9.27900
C          2.42500        7.41100       10.92600
H          2.80100        8.31600       10.95700
H          1.97800        7.21500       11.77600
H          1.77600        7.35300       10.19400
C          2.23500        4.45400       12.45600
H          1.40200        5.00800       12.49100
C          1.84300        2.99800       12.68900
H          1.50500        2.89400       13.60300
H          2.62900        2.42500       12.56400
H          1.14600        2.74200       12.05100
C          3.15600        4.92100       13.56300
H          2.71500        4.79800       14.42900
H          3.36200        5.87100       13.43600
H          3.98500        4.40000       13.53900
C          3.16900        2.64000        6.84700
H          3.94400        2.07100        6.56900
C          3.58400        4.10200        6.61600
H          3.87900        4.21500        5.68800
H          4.31900        4.33200        7.22200
H          2.82000        4.69000        6.79000
C          1.99500        2.25600        5.94700
H          2.23800        2.40800        5.01000
H          1.21500        2.80300        6.17600
H          1.77900        1.30900        6.07800
C          2.35100        0.54200        8.69800
H          1.43800        0.49100        8.29400
C          2.22700        0.07400       10.15100
H          1.89000       -0.84600       10.17000
H          1.60500        0.65900       10.63000
H          3.10700        0.10800       10.58100
C          3.24500       -0.42600        7.91600
H          2.87100       -1.33000        7.96800
H          4.14600       -0.42300        8.30100
H          3.28900       -0.14300        6.97900
