79
C:\Users\Javier\OneDrive - Universitat de Barcelona\Tesi\4 - Contribucions\Treballs\3-PhD\chapter_1\cif\pc2p\LUTCOU.pc2p.pdb
Pd         3.37600        4.35000       15.24600
S          2.01800        2.74600       16.38800
P          2.18100        5.99400       16.26800
C          3.05600        2.00800       17.61300
C          4.44600        1.99900       17.55400
H          4.89100        2.46400       16.85400
C          5.19200        1.31700       18.50500
H          6.13900        1.31900       18.43100
C          4.60700        0.63600       19.55700
C          3.22600        0.67800       19.63100
H          2.78700        0.23200       20.34800
C          2.46000        1.35500       18.68400
H          1.51400        1.37100       18.77300
C          5.42600       -0.12000       20.57300
H          4.83000       -0.53300       21.23200
H          6.03500        0.49800       21.02700
H          5.94500       -0.81700       20.12000
C          3.01500        7.59500       15.91900
H          2.34200        8.31900       15.92500
H          3.67000        7.78200       16.63800
C          0.46200        6.14400       15.62800
H         -0.03100        5.32400       15.91900
C          0.42500        6.17000       14.09400
H         -0.50500        6.13300       13.78800
H          0.91600        5.39800       13.74200
H          0.84300        6.99600       13.77200
C         -0.29600        7.35500       16.20500
H         -1.22000        7.34800       15.88200
H          0.14400        8.18300       15.91700
H         -0.29200        7.30700       17.18300
C          2.01000        6.02200       18.10900
H          1.80000        6.96600       18.36600
C          3.34900        5.66800       18.77200
H          3.26900        5.76800       19.74400
H          4.04800        6.26800       18.43700
H          3.58500        4.74100       18.55700
C          0.89000        5.14900       18.68100
H          0.81100        5.30900       19.64500
H          1.09900        4.20400       18.52300
H          0.04300        5.37400       18.24200
P          4.57100        5.99400       14.22400
C          3.73700        7.59500       14.57200
H          4.41100        8.31900       14.56700
H          3.08300        7.78200       13.85300
C          6.29100        6.14400       14.86400
H          6.78400        5.32400       14.57300
C          6.32700        6.17000       16.39800
H          7.25800        6.13300       16.70300
H          5.83700        5.39800       16.75000
H          5.91000        6.99600       16.72000
C          7.04800        7.35500       14.28600
H          7.97300        7.34800       14.61000
H          6.60900        8.18300       14.57500
H          7.04500        7.30700       13.30900
C          4.74300        6.02200       12.38200
H          4.95200        6.96600       12.12600
C          3.40300        5.66800       11.72000
H          3.48300        5.76800       10.74700
H          2.70500        6.26800       12.05400
H          3.16700        4.74100       11.93400
C          5.86200        5.14900       11.81000
H          5.94200        5.30900       10.84700
H          5.65400        4.20400       11.96900
H          6.70900        5.37400       12.25000
S          4.73400        2.74600       14.10400
C          3.69700        2.00800       12.87900
C          2.30700        1.99900       12.93800
H          1.86200        2.46400       13.63800
C          1.56000        1.31700       11.98600
H          0.61300        1.31900       12.06000
C          2.14600        0.63600       10.93500
C          3.52700        0.67800       10.86000
H          3.96500        0.23200       10.14400
C          4.29300        1.35500       11.80700
H          5.23800        1.37100       11.71900
C          1.32600       -0.12000        9.91900
H          1.92300       -0.53300        9.25900
H          0.71700        0.49800        9.46500
H          0.80800       -0.81700       10.37100
