98
C:\Users\Javier\OneDrive - Universitat de Barcelona\Tesi\4 - Contribucions\Treballs\3-PhD\chapter_1\cif\pc2p\MAFGIK.pc2p.pdb
Ru         6.12800       13.16400        4.84200
P          6.56200       14.81700        6.40000
P          5.74500       14.91300        3.42000
Cl         3.80400       13.11700        5.42800
N          7.09500       10.41500        5.66400
N          6.47500       11.51700        6.16600
N          6.49400       10.55400        3.34800
N          5.66300       11.62800        3.44900
N          8.52300       11.58000        4.13300
N          8.10600       12.88200        4.22800
C          7.59700       10.43600        4.28700
H          8.08200        9.60200        4.10900
C          7.07100        9.38500        6.54000
H          7.40100        8.52500        6.40400
C          6.47100        9.85500        7.64800
H          6.34100        9.38700        8.44000
C          6.08100       11.16800        7.39800
H          5.62000       11.71400        7.99200
C          6.04500        9.63700        2.51400
H          6.45000        8.82900        2.29200
C          4.84800       10.13000        2.04100
H          4.27200        9.71000        1.44300
C          4.66700       11.38100        2.63300
H          3.94900       11.94900        2.47300
C          9.85100       11.47200        3.80300
H         10.34200       10.69100        3.67100
C         10.29700       12.76300        3.71100
H         11.16200       13.03800        3.50900
C          9.19900       13.58900        3.98100
H          9.23300       14.51900        3.98400
C          6.81100       15.00900        1.91800
C          7.25200       13.90000        1.29300
H          7.04400       13.06600        1.64800
C          8.01200       13.96800        0.13000
H          8.30500       13.18700       -0.28400
C          8.33700       15.23900       -0.41800
H          8.85400       15.31000       -1.18800
C          7.88300       16.31300        0.20000
H          8.08200       17.15200       -0.15000
C          7.10200       16.23200        1.37700
H          6.78800       17.00800        1.78200
C          8.31400       15.27700        6.64500
C          8.80000       16.55600        6.50500
H          8.21000       17.25300        6.32900
C         10.15700       16.82800        6.62400
H         10.44900       17.69800        6.47600
C         11.06200       15.90100        6.93800
H         11.96300       16.11300        7.02800
C         10.60200       14.63000        7.12100
H         11.21600       13.97100        7.35400
C          9.25500       14.26100        6.98000
H          8.98400       13.37900        7.10300
C          5.93900       14.67800        8.13200
C          6.76400       14.62300        9.24300
H          7.68400       14.65000        9.11100
C          6.30300       14.53200       10.49500
H          6.88100       14.56200       11.22300
C          4.95300       14.39300       10.66900
H          4.61400       14.34200       11.53500
C          4.09000       14.32900        9.62000
H          3.17900       14.19800        9.75600
C          4.60300       14.46100        8.36400
H          4.02600       14.40300        7.63700
C          4.09300       15.17600        2.69700
C          3.13800       15.81800        3.43600
H          3.31800       16.07000        4.31200
C          1.87700       16.09600        2.86000
H          1.25100       16.60400        3.32600
C          1.57600       15.59800        1.57300
H          0.73100       15.72900        1.20800
C          2.53800       14.91800        0.86700
H          2.36000       14.61500        0.00600
C          3.76700       14.69100        1.44100
H          4.39900       14.19600        0.97200
C          6.04300       16.48500        4.31100
H          6.96600       16.75500        4.18600
H          5.47600       17.18000        3.93800
C          5.75100       16.33800        5.82100
H          4.79300       16.28500        5.97400
H          6.09500       17.10600        6.30500
P          3.48000       19.84100        6.01000
F          2.04300       20.09600        6.47400
F          3.69400       18.86500        7.18000
F          3.99800       21.10400        6.88100
F          3.24600       20.86100        4.79600
F          3.07600       18.62800        5.20200
F          4.99600       19.69400        5.50600
C          8.94800        6.44800        8.23200
C          7.98400        6.60800        7.77400
H          7.31400        6.15300        8.28600
H          7.99600        6.26400        6.87900
H          7.79600        7.54800        7.75600
C         10.13700        6.93600        7.88800
H         10.09800        7.27700        6.99100
H         10.79600        6.24100        7.93900
H         10.37300        7.64900        8.48900
O          4.21200        7.18900        5.42200
O          9.29800        6.06900        9.40400
