77
C:\Users\Javier\OneDrive - Universitat de Barcelona\Tesi\4 - Contribucions\Treballs\3-PhD\chapter_1\cif\pc2p\MANVUS.pc2p.pdb
Pd         9.34200        5.18400       10.60000
P          9.50900        2.92500       10.36600
P          7.09700        4.80600       10.61500
C          7.84700        2.27800        9.95400
H          7.64300        2.44400        9.02100
H          7.80700        1.32200       10.11500
C          6.85700        3.00900       10.85300
H          7.01200        2.77200       11.78000
H          5.94900        2.76000       10.61900
C          9.92100        2.15300       11.96000
C          9.59700        0.83700       12.21300
H          9.19400        0.32200       11.55200
C          9.87300        0.28500       13.44800
H          9.66500       -0.60600       13.61000
C         10.45000        1.04000       14.43900
H         10.60600        0.67100       15.27800
C         10.79200        2.32000       14.18300
H         11.20700        2.82800       14.84200
C         10.52500        2.88600       12.94000
H         10.76000        3.77100       12.77700
C         10.65500        2.24300        9.14000
C         11.82800        1.66600        9.50600
H         12.04200        1.58800       10.40800
C         12.71300        1.19000        8.54500
H         13.52300        0.81600        8.80200
C         12.38400        1.27400        7.21300
H         12.97400        0.95300        6.56800
C         11.19700        1.82400        6.83500
H         10.97300        1.87200        5.93300
C         10.33100        2.30900        7.78300
H          9.52200        2.68300        7.51900
C          6.35800        5.13200        8.98400
C          6.99200        6.04800        8.14300
H          7.78100        6.45900        8.41100
C          6.43700        6.34300        6.90300
H          6.85900        6.95400        6.34100
C          5.28200        5.74200        6.50600
H          4.90200        5.96100        5.68500
C          4.67300        4.81600        7.31000
H          3.89700        4.39200        7.02500
C          5.21100        4.51100        8.54200
H          4.79400        3.87800        9.08200
C          6.02300        5.60000       11.86000
C          6.60900        6.12100       13.00600
H          7.53100        6.09200       13.12100
C          5.78800        6.69000       13.98700
H          6.16900        7.03300       14.76200
C          4.44600        6.74800       13.81500
H          3.91300        7.13600       14.47200
C          3.87100        6.24000       12.69200
H          2.94700        6.28400       12.58300
C          4.65300        5.65800       11.71400
H          4.25500        5.30300       10.95400
S         11.60600        5.36900       10.36200
S          9.23000        7.44400       11.06300
C         11.89900        7.04300       10.65900
C         10.92100        7.92700       10.96700
C         13.34900        7.37000       10.58600
O         13.75400        7.39800        9.34800
O         14.09000        7.44000       11.48700
C         15.18100        7.45900        9.10600
H         15.38200        8.19700        8.50900
H         15.65000        7.60900        9.94200
C         15.62300        6.23800        8.52100
H         15.47300        5.51600        9.13700
H         16.55900        6.30000        8.32100
H         15.13200        6.07600        7.71100
C         11.19800        9.35500       11.25300
O         12.32000        9.75200       10.74400
O         10.47200       10.10000       11.77700
C         12.76800       11.10300       11.07600
H         12.01300       11.71200       11.08300
H         13.18000       11.11300       11.95400
C         13.70500       11.49800       10.09200
H         14.25500       12.20400       10.43900
H         13.23900       11.81100        9.31300
H         14.25600       10.75000        9.85600
