170
C:\Users\Javier\OneDrive - Universitat de Barcelona\Tesi\4 - Contribucions\Treballs\3-PhD\chapter_1\cif\pc2p\MAZTAL.pc2p.pdb
Pd        -3.76700       -1.87600       12.03200
N         -3.07200       -1.97500       10.00000
P         -4.31100       -1.85500       14.22200
P         -6.00700       -2.54600       11.72300
C         -1.86600       -1.12800       12.28800
C         -1.33800       -0.31500       13.28100
H         -1.87000       -0.10900       14.04100
C         -0.04200        0.20900       13.19600
H          0.29100        0.77400       13.88300
C          0.74500       -0.09900       12.11000
H          1.62800        0.24500       12.05500
C          0.26100       -0.89900       11.10700
H          0.80700       -1.11100       10.35900
C         -1.05100       -1.40300       11.19500
C         -1.59600       -2.29000       10.10600
H         -1.14300       -2.07600        9.23900
C         -1.33800       -3.74900       10.47300
H         -0.37400       -3.89200       10.58700
H         -1.67100       -4.33000        9.75700
H         -1.80100       -3.96200       11.30900
C         -3.74500       -2.97600        9.11400
H         -3.79100       -3.84100        9.57200
H         -3.23400       -3.07300        8.28300
H         -4.65200       -2.66900        8.90400
C         -3.24000       -0.63900        9.39400
H         -4.18800       -0.38700        9.41400
H         -2.92800       -0.65900        8.46500
H         -2.71800        0.01800        9.90000
C         -6.15300       -2.08600       14.38200
H         -6.35100       -3.03400       14.58800
H         -6.49100       -1.53300       15.13100
C         -6.86700       -1.68800       13.09700
H         -6.82500       -0.70700       12.97000
H         -7.81800       -1.96100       13.13200
C         -3.99200       -0.37900       15.24700
C         -3.22000       -0.42000       16.40400
H         -2.82400       -1.24000       16.67600
C         -3.02300        0.72800       17.16900
H         -2.50400        0.69000       17.96200
C         -3.58000        1.91100       16.77000
H         -3.44900        2.69300       17.29300
C         -4.34000        1.97900       15.60000
H         -4.71900        2.80600       15.32600
C         -4.53700        0.84400       14.84400
H         -5.04800        0.89300       14.04400
C         -3.59600       -3.22100       15.17800
C         -2.47200       -3.88600       14.67800
H         -2.10400       -3.63300       13.84000
C         -1.89600       -4.91600       15.41100
H         -1.13400       -5.36900       15.07100
C         -2.43400       -5.28700       16.64600
H         -2.02500       -5.97100       17.16300
C         -3.56300       -4.64900       17.10300
H         -3.94900       -4.91800       17.92900
C         -4.14800       -3.62100       16.38100
H         -4.92700       -3.19100       16.71200
C         -6.89900       -2.07600       10.21200
C         -7.45900       -3.02500        9.32300
H         -7.42300       -3.95300        9.52600
C         -8.05800       -2.58600        8.15400
H         -8.42400       -3.22400        7.55300
C         -8.13500       -1.26100        7.84400
H         -8.55900       -0.98000        7.04100
C         -7.58600       -0.31900        8.71500
H         -7.63100        0.60700        8.50500
C         -6.97800       -0.73200        9.88100
H         -6.60700       -0.08500       10.46800
C         -6.40700       -4.29100       11.99500
C         -5.39500       -5.24800       12.07700
H         -4.48700       -4.98100       11.99800
C         -5.69800       -6.57600       12.27100
H         -5.00000       -7.21600       12.34200
C         -7.02300       -6.98400       12.36100
H         -7.23100       -7.90400       12.47000
C         -8.03400       -6.05500       12.29200
H         -8.93800       -6.33400       12.37100
C         -7.73700       -4.71600       12.11000
H         -8.44200       -4.07900       12.06000
P         -1.33000       -7.62400       11.79300
F         -0.46300       -7.09400       13.02700
F         -2.42100       -6.50400       12.09900
F         -2.09800       -8.63800       12.77800
F         -0.23800       -8.77000       11.51400
F         -0.55000       -6.63800       10.81800
F         -2.21100       -8.15600       10.58400
Pd         6.68900        2.95800        4.80500
N          5.85400        3.40400        6.74700
P          8.95000        3.52900        5.14200
P          7.28200        2.77700        2.64200
C          4.79600        2.20600        4.53500
C          4.36600        1.18200        3.69300
H          4.95500        0.83600        3.03300
C          3.08600        0.66400        3.81600
H          2.81100       -0.03300        3.23200
C          2.20600        1.13500        4.75800
H          1.33300        0.76700        4.83300
C          2.62000        2.16400        5.60500
H          2.01900        2.50300        6.25700
C          3.89500        2.70200        5.50700
C          4.41000        3.77800        6.41500
H          4.44200        4.62100        5.87900
C          3.54000        4.05700        7.62700
H          3.96900        4.73800        8.18700
H          3.42600        3.23300        8.14400
H          2.66400        4.38200        7.33200
C          6.51400        4.55000        7.42600
H          6.40000        5.35900        6.88500
H          7.47000        4.36000        7.53100
H          6.10900        4.68600        8.30700
C          5.95200        2.20100        7.61200
H          5.44200        1.46800        7.20900
H          5.58700        2.40600        8.49800
H          6.89200        1.93800        7.69800
C          9.80900        2.60700        3.79900
H         10.76900        2.84800        3.77000
H          9.72900        1.63100        3.93900
C          9.11100        3.02400        2.50000
H          9.46100        2.48400        1.74700
H          9.30300        3.97700        2.31000
C          9.76600        3.01700        6.68300
C          9.85700        1.64600        6.95300
H          9.51100        1.01100        6.33800
C         10.46200        1.22700        8.14000
H         10.53300        0.29900        8.33000
C         10.95400        2.13800        9.03300
H         11.37800        1.84300        9.82900
C         10.83200        3.50300        8.77300
H         11.16000        4.13900        9.39800
C         10.23500        3.92700        7.59900
H         10.14800        4.85700        7.42600
C          9.49300        5.25000        4.88500
C         10.84100        5.58000        4.85000
H         11.49800        4.89900        4.93700
C         11.22800        6.88700        4.68900
H         12.14900        7.11400        4.66000
C         10.26000        7.87700        4.57100
H         10.53000        8.78100        4.46600
C          8.92500        7.57400        4.60000
H          8.27500        8.26300        4.53000
C          8.52800        6.23700        4.73500
H          7.60600        6.00800        4.72300
C          6.99400        1.24400        1.70300
C          6.22200        1.22800        0.54400
H          5.82400        2.03000        0.22700
C          6.03900        0.04700       -0.14700
H          5.50300        0.03600       -0.93200
C          6.62800       -1.11200        0.29400
H          6.50800       -1.91800       -0.19300
C          7.38900       -1.11200        1.44000
H          7.79600       -1.91700        1.73700
C          7.56800        0.07000        2.17300
H          8.07300        0.06800        2.97800
C          6.55700        4.12900        1.68500
C          5.43000        4.78000        2.13000
H          5.03100        4.51200        2.94900
C          4.86400        5.82000        1.40600
H          4.08700        6.26100        1.72700
C          5.44000        6.20300        0.21900
H          5.05600        6.91800       -0.27500
C          6.57300        5.56700       -0.27600
H          6.95600        5.83900       -1.10100
C          7.13500        4.53400        0.44900
H          7.90900        4.09300        0.12200
P          9.50000       -2.22200        5.29700
F         10.17700       -1.02000        4.49200
F         10.71100       -3.15200        4.95500
F         10.18200       -1.69900        6.60400
F          8.26800       -1.28400        5.61100
F          8.78100       -2.65500        3.97100
F          8.79600       -3.40100        6.07700
