68
C:\Users\Javier\OneDrive - Universitat de Barcelona\Tesi\4 - Contribucions\Treballs\3-PhD\chapter_1\cif\pc2p\MAZYUH.pc2p.pdb
Rh        15.66200        1.58000       12.39100
I         16.27900       -0.14900       14.41700
I         16.50300       -0.27300       10.57100
I         13.15000        0.64500       12.19600
C         17.47200        2.08300       12.53900
O         18.56900        2.33400       12.61600
P         15.20500        3.17000       10.74300
C         14.48800        4.61100       11.63000
H         15.21600        5.22900       11.88800
H         13.87700        5.09700       11.01900
C         13.71900        4.18900       12.87600
H         12.90300        3.69200       12.61800
H         13.44400        4.98900       13.39100
P         14.79000        3.13400       13.90300
C         14.03200        2.75300        9.43200
C         12.68800        3.08300        9.53500
H         12.36900        3.55400       10.29700
C         11.81300        2.72200        8.51900
H         10.89500        2.94900        8.59600
F         10.49900        2.92300        8.67800
C         12.23600        2.05200        7.41900
H         11.61700        1.80500        6.74100
C         13.57600        1.73000        7.29300
H         13.88100        1.27000        6.52000
C         14.46900        2.07500        8.27900
H         15.38900        1.85400        8.18300
C         16.62200        3.90700        9.83700
C         17.77400        3.18300        9.53000
H         17.85300        2.27000        9.78400
C         18.79000        3.81000        8.85900
H         19.56800        3.31500        8.62800
F         19.81700        3.41400        8.62400
C         18.71100        5.16900        8.50000
H         19.44900        5.59700        8.08200
C         17.60600        5.83800        8.74500
H         17.53200        6.73800        8.44900
C         16.51400        5.23800        9.44800
H         15.73000        5.73800        9.64800
C         13.76600        2.61700       15.30700
C         12.37700        2.63000       15.24200
H         11.94500        2.91300       14.44500
C         11.61900        2.23800       16.32800
H         10.67100        2.28100       16.27100
F         10.33400        1.97900       16.11600
C         12.18800        1.79100       17.47400
H         11.64900        1.50600       18.20200
C         13.55100        1.75900       17.56800
H         13.96200        1.44800       18.36600
C         14.34500        2.18100       16.50200
H         15.29100        2.17200       16.58800
C         16.01500        4.25600       14.65700
C         17.18200        3.74100       15.25500
H         17.37600        2.81000       15.23000
C         18.04500        4.63700       15.88300
H         18.84200        4.31000       16.28100
F         19.26700        4.21300       16.26700
C         17.76800        5.98000       15.94100
H         18.37700        6.57400       16.36700
C         16.65200        6.45100       15.40200
H         16.46200        7.38100       15.45200
C         15.75500        5.60000       14.76400
H         14.95400        5.95300       14.39800
C         18.89000        7.00500       11.00400
C         18.30900        6.53700       12.27000
C         18.23000        6.31500       13.78100
C         18.81000        8.33300        9.98800
C         19.39100        8.80100        8.72200
C         19.47000        9.02300        7.21100
