97
C:\Users\Javier\OneDrive - Universitat de Barcelona\Tesi\4 - Contribucions\Treballs\3-PhD\chapter_1\cif\pc2p\MEBVOF.pc2p.pdb
C          1.16000        4.00300        7.57600
C          2.12800        6.25200        7.50400
C          1.18100        5.71200        7.41300
C          1.82600        4.66400        7.48700
Ru         7.01600        2.49600        3.76300
P          5.31900        1.07100        3.32600
P          8.26900        0.93700        2.68600
F          4.31000        4.30900       -4.36900
C          7.60700        4.57500        4.35900
C          8.57200        3.68300        4.88200
C          7.90200        2.80800        5.81600
C          6.53400        3.18500        5.85700
C          6.32500        4.25600        4.93700
C          7.84800        5.70500        3.39400
H          7.01800        6.15400        3.21400
H          8.20600        5.35700        2.57400
H          8.47000        6.32700        3.77800
C         10.05900        3.75300        4.67300
H         10.48100        3.02200        5.13200
H         10.39300        4.58300        5.02000
H         10.25300        3.69700        3.73500
C          8.59200        1.83500        6.73500
H          9.51500        1.75700        6.48500
H          8.16800        0.97600        6.66700
H          8.53100        2.15100        7.64000
C          5.52500        2.66400        6.84600
H          4.67100        3.06700        6.67300
H          5.80800        2.88400        7.73700
H          5.45400        1.71100        6.76000
C          5.06500        5.02300        4.69000
H          5.22300        5.68900        4.01700
H          4.78500        5.45000        5.50300
H          4.37800        4.42200        4.39100
C          5.74600        0.11200        1.80800
H          5.13500       -0.63300        1.69900
H          5.68200        0.68000        1.02300
C          7.17900       -0.39800        1.97400
H          7.52800       -0.67600        1.11200
H          7.18300       -1.16800        2.56400
C          4.91400       -0.27500        4.50500
C          5.79400       -0.57300        5.52800
H          6.56000       -0.05600        5.62900
C          5.56600       -1.62500        6.41300
H          6.17300       -1.81000        7.09200
C          4.41600       -2.39100        6.26300
H          4.25500       -3.10000        6.84300
C          3.52600       -2.11100        5.27500
H          2.75200       -2.62200        5.19600
C          3.75300       -1.06500        4.37600
H          3.14200       -0.89000        3.69700
C          3.65900        1.77000        3.00600
C          2.87100        2.16400        4.07900
H          3.16600        2.00600        4.94600
C          1.64600        2.79400        3.87300
H          1.13600        3.06200        4.60200
C          1.18800        3.02400        2.59300
H          0.36700        3.43600        2.45500
C          1.96100        2.63500        1.52400
H          1.65100        2.77600        0.65900
C          3.19800        2.03500        1.72100
H          3.72200        1.80900        0.98600
C          9.29500        1.49200        1.26100
C          9.52800        2.84600        1.04700
H          9.14300        3.47600        1.61200
C         10.33400        3.26800       -0.01100
H         10.48900        4.17500       -0.13900
C         10.90400        2.33900       -0.86800
H         11.43600        2.62300       -1.57600
C         10.67600        0.98900       -0.66800
H         11.05000        0.36400       -1.24700
C          9.89100        0.56300        0.39500
H          9.76000       -0.34800        0.53600
C          9.52100       -0.03200        3.62800
C         10.87000        0.33600        3.60900
H         11.14900        1.02900        3.05600
C         11.79700       -0.32100        4.40500
H         12.69000       -0.06100        4.38200
C         11.40600       -1.36200        5.23200
H         12.03100       -1.80100        5.76300
C         10.07900       -1.73800        5.25700
H          9.81100       -2.43800        5.80800
C          9.13800       -1.08700        4.47000
H          8.24700       -1.35300        4.50000
C          6.49900        3.13400        1.92400
C          6.16700        3.51100        0.82400
C          5.71800        3.78400       -0.52200
C          6.56700        3.62800       -1.62700
H          7.45900        3.40100       -1.49300
C          6.09300        3.80900       -2.92400
H          6.65600        3.70300       -3.65600
C          4.77400        4.14800       -3.09600
C          3.91400        4.33800       -2.05800
H          3.02900        4.58200       -2.21100
C          4.38700        4.15800       -0.76800
H          3.81000        4.28700       -0.04800
C          0.19200        1.75400        7.64900
C          1.13900        2.29500        7.74000
