93
C:\Users\Javier\OneDrive - Universitat de Barcelona\Tesi\4 - Contribucions\Treballs\3-PhD\chapter_1\cif\pc2p\MEBWUM.pc2p.pdb
Ru        10.55400        6.93100       11.15300
P         12.52900        7.28000       12.19900
P         11.02500        4.75600       11.52400
C         12.06700        4.66100       13.03500
H         11.53200        4.85000       13.82200
H         12.44600        3.77300       13.12500
C         13.18100        5.69700       12.89500
H         13.87300        5.34900       12.31100
H         13.57700        5.86500       13.76400
C         12.56500        8.44600       13.62000
C         13.65300        8.50400       14.47900
H         14.37500        7.93400       14.34500
C         13.67700        9.40600       15.54300
H         14.39500        9.41300       16.13300
C         12.63700       10.28300       15.71600
H         12.66300       10.90500       16.40600
C         11.56000       10.24100       14.86900
H         10.85300       10.83500       14.98800
C         11.51600        9.31100       13.82800
H         10.77200        9.27600       13.27300
C         13.95900        7.90700       11.22700
C         14.66300        7.06700       10.37600
H         14.44400        6.16400       10.34200
C         15.68200        7.54800        9.57800
H         16.14000        6.96600        9.01500
C         16.02300        8.86800        9.60800
H         16.69800        9.18900        9.05700
C         15.35800        9.71900       10.46100
H         15.59900       10.61600       10.50100
C         14.33100        9.24100       11.25700
H         13.88300        9.82600       11.82400
C         12.01000        3.78900       10.31300
C         12.20600        2.41400       10.46400
H         11.81400        1.96000       11.17500
C         12.98500        1.73200        9.55000
H         13.08800        0.81100        9.62700
C         13.60500        2.39700        8.53600
H         14.15000        1.93000        7.94500
C         13.43700        3.73300        8.38300
H         13.86400        4.18200        7.68900
C         12.62300        4.42700        9.27000
H         12.49300        5.34000        9.15200
C          9.63700        3.60700       11.86000
C          9.00200        2.97600       10.80300
H          9.32500        3.08400        9.93700
C          7.89400        2.18800       11.03100
H          7.47200        1.77600       10.31200
C          7.40900        2.00200       12.28100
H          6.66500        1.46100       12.42300
C          8.02800        2.62300       13.34000
H          7.71200        2.49200       14.20500
C          9.11600        3.44100       13.12200
H          9.50500        3.88800       13.84000
C          8.98000        8.41900       10.61700
C          8.65200        7.13800       10.03900
C          9.67000        6.85200        9.08800
C         10.63400        7.88800        9.10900
C         10.18300        8.87000       10.07400
C          8.11200        9.15900       11.58300
H          7.86500        8.57500       12.30500
H          7.32000        9.46300       11.13500
H          8.59200        9.91300       11.93300
C          7.42600        6.37900       10.30300
H          7.30800        6.28000       11.25000
H          7.49300        5.51100        9.89700
H          6.67300        6.84700        9.93400
C          9.63100        5.73700        8.08500
H         10.52700        5.50200        7.83300
H          9.14500        6.02300        7.30800
H          9.19600        4.97400        8.47000
C         11.78300        8.07700        8.16200
H         12.54800        8.39700        8.64600
H         11.54100        8.71600        7.48800
H         11.99700        7.23800        7.74500
C         10.81600       10.22700       10.27500
H         11.76900       10.15100       10.18100
H         10.60300       10.55100       11.15100
H         10.47800       10.83800        9.61500
C          9.78700        6.77600       13.00500
C          9.30800        6.69400       14.12300
C          8.83900        6.47500       15.45200
C          9.34800        7.16400       16.55200
H          9.97000        7.84100       16.42400
C          8.93000        6.84500       17.83300
H          9.27800        7.31300       18.55600
C          8.02700        5.86500       18.04700
H          7.77300        5.64700       18.91500
C          7.49500        5.20500       17.00300
H          6.85700        4.54600       17.15200
C          7.89000        5.49900       15.71400
H          7.51000        5.03100       15.00600
O         12.54500       12.49300        7.10800
O         13.02400       11.62600        7.27700
