81
C:\Users\Javier\OneDrive - Universitat de Barcelona\Tesi\4 - Contribucions\Treballs\3-PhD\chapter_1\cif\pc2p\MECFOR.pc2p.pdb
Pd         1.87600        4.00000        3.63200
P          1.34500        2.05800        4.77300
C          1.94100        0.65800        3.73000
H          2.00700       -0.16700        4.27400
H          1.30500        0.49300        2.98900
C          2.26900        1.83500        6.32800
C          3.09500        2.84800        6.81300
H          3.20000        3.65200        6.31800
C          3.76600        2.68500        8.02500
H          4.32300        3.37800        8.35700
C          3.62400        1.52200        8.73700
H          4.07300        1.41700        9.56700
C          2.82500        0.49800        8.25200
H          2.74600       -0.31200        8.74200
C          2.14400        0.65000        7.05500
H          1.59100       -0.05000        6.73000
C         -0.36300        1.61700        5.22600
C         -0.94300        2.22100        6.34100
H         -0.43700        2.83100        6.86600
C         -2.25500        1.93200        6.68600
H         -2.64400        2.35100        7.44600
C         -3.00200        1.04800        5.94200
H         -3.90000        0.85600        6.18300
C         -2.43500        0.44600        4.84800
H         -2.94000       -0.17400        4.33600
C         -1.12600        0.73700        4.48200
H         -0.75200        0.32800        3.71000
P          3.20400        2.64200        2.29800
C          3.30800        1.02800        3.17400
H          3.61500        0.32700        2.54700
H          3.96400        1.09100        3.91200
C          2.37300        2.27900        0.71600
C          2.22300        0.99400        0.20700
H          2.62600        0.26000        0.65600
C          1.49100        0.77500       -0.94800
H          1.39100       -0.10900       -1.28200
C          0.90700        1.83000       -1.62000
H          0.39600        1.67300       -2.40500
C          1.07200        3.10700       -1.14700
H          0.69100        3.83800       -1.61800
C          1.79000        3.33400        0.01600
H          1.88700        4.22200        0.34100
C          4.95100        2.98900        1.93500
C          5.73300        3.48400        2.97700
H          5.32900        3.69000        3.81200
C          7.09100        3.67900        2.80500
H          7.62000        4.00500        3.52300
C          7.67900        3.39500        1.58000
H          8.61200        3.52500        1.46000
C          6.90800        2.92100        0.53400
H          7.31100        2.74100       -0.30800
C          5.54100        2.70900        0.71000
H          5.01500        2.37300       -0.00500
B          0.86600        5.92200        3.26500
H          0.04000        5.82000        2.54400
B          1.79000        7.42600        3.21100
H          1.55600        8.21800        2.46400
B          0.72800        7.07700        4.59800
H         -0.14400        7.73200        4.76700
B          2.52900        5.88700        2.64700
H          3.56200        5.87400        3.37400
H          2.90300        5.79800        1.64100
B          3.44100        7.14300        3.58800
H          4.26500        7.71200        3.24400
H          3.47700        7.04600        4.87300
B          2.33700        7.70800        4.89900
H          2.51500        8.69800        5.35100
B          1.46100        6.48100        6.10700
H          0.84700        6.78900        6.98300
H          2.58200        6.43500        6.35000
H          1.42700        5.17100        5.80500
B          0.61500        5.29700        4.90200
H         -0.35600        4.94800        5.27200
C          0.25300        3.32700       10.65300
H         -0.65900        3.58800       10.96900
Cl         0.66100        4.37600        9.22400
Cl         0.15600        1.69200       10.06300
Cl         1.31500        3.60700       11.89800
Cl         0.98400        1.65200       11.52000
Cl         1.60800        4.37100       11.22100
Cl         0.03300        2.95500        9.30400
