73
C:\Users\Javier\OneDrive - Universitat de Barcelona\Tesi\4 - Contribucions\Treballs\3-PhD\chapter_1\cif\pc2p\MIDPEU.pc2p.pdb
C         -2.30400        0.23400        5.56400
Cl        -3.71200        0.59900        5.43500
Cl        -0.77400       -0.44600        6.27800
Pd         2.50700        3.26500       14.67500
P          4.15900        3.88800       13.33300
P          1.16700        4.10700       13.11200
C          3.49900        4.99800       12.03800
H          3.37300        5.89200       12.39100
H          4.11100        5.04400       11.28600
C          2.16800        4.40400       11.60600
H          2.31400        3.56900       11.13300
H          1.70600        5.01600       11.01300
C         -0.10600        2.61400       15.87500
C         -1.04300        1.56600       16.47000
H         -0.94800        1.55600       17.42600
H         -0.82100        0.70000       16.11800
H         -1.95000        1.78000       16.24000
C          4.17100        3.47600       16.85900
C          5.29700        3.31000       17.82200
H          6.12300        3.54100       17.39000
H          5.33400        2.39800       18.11800
H          5.15900        3.88600       18.57800
O          1.05100        2.27500       15.77900
O         -0.60500        3.66800       15.53900
O          3.98200        2.56200       16.00800
O          3.51100        4.51300       16.90200
C          4.25800        1.15500       12.81100
H          3.65700        1.07000       13.51600
C          4.69400        0.02400       12.13000
H          4.38400       -0.81700       12.37900
C          5.59200        0.15100       11.07700
H          5.88300       -0.60600       10.62100
C          6.05400        1.40700       10.70500
H          6.65600        1.49200       10.00100
C          5.61900        2.53900       11.38600
H          5.92900        3.37900       11.13700
C          4.71900        2.41200       12.44000
C          6.74000        3.89600       14.37800
H          6.74800        2.98500       14.19100
C          7.85000        4.49900       14.95900
H          8.60200        3.98900       15.16000
C          7.83600        5.86000       15.23800
H          8.57900        6.26200       15.62700
C          6.71300        6.61900       14.93600
H          6.70300        7.53100       15.12300
C          5.60200        6.01900       14.35500
H          4.85000        6.52600       14.15400
C          5.61500        4.65700       14.07600
C          0.84600        6.30600       14.76600
H          1.31900        5.80700       15.39300
C          0.42500        7.59400       15.07800
H          0.61700        7.95700       15.91200
C         -0.28400        8.33700       14.14200
H         -0.56400        9.20000       14.35000
C         -0.57000        7.79600       12.89400
H         -1.04400        8.29400       12.26900
C         -0.15000        6.50800       12.58400
H         -0.34100        6.14600       11.74900
C          0.55900        5.76300       13.52000
C         -1.49400        3.50000       12.43800
H         -1.71700        4.36000       12.71600
C         -2.47800        2.65600       11.93700
H         -3.35800        2.95100       11.87800
C         -2.14600        1.36900       11.52400
H         -2.80500        0.80500       11.18800
C         -0.83100        0.92900       11.61400
H         -0.61000        0.06900       11.33800
C          0.15200        1.77400       12.11600
H          1.03200        1.47800       12.17600
C         -0.17900        3.05800       12.52900
Cl        -4.79900        0.44600        6.97800
C         -3.26900       -0.23400        7.69300
Cl        -1.86000       -0.59900        7.82100
