150
C:\Users\Javier\OneDrive - Universitat de Barcelona\Tesi\4 - Contribucions\Treballs\3-PhD\chapter_1\cif\pc2p\MIQSAG01.pc2p.pdb
Rh         4.47500      -10.13400       -4.99700
P          5.03000       -7.90500       -4.77300
P          6.14700      -10.09300       -6.60000
C          7.57400       -6.60700       -1.02600
C          5.51600       -7.28300       -3.09100
C          4.22200       -7.09400       -2.22700
C          6.44600       -8.35000       -2.42400
C          6.29500       -5.90500       -3.11800
C          4.62600       -6.68800       -0.80500
C          6.82000       -7.93200       -0.98600
C          6.66200       -5.54000       -1.71600
C          5.51600       -7.75600       -0.12900
C          3.70800       -6.78300       -5.37200
C          5.37600       -5.35100       -0.83600
C          6.40100       -7.45900       -5.92700
C          6.33200       -8.36400       -7.14700
C          7.78500      -10.41800       -5.83600
C          4.91400      -10.78300       -8.92000
C          7.33700      -10.90400       -9.02400
C          6.05200      -12.62000       -7.63800
C          6.12400      -11.13400       -8.13600
C          1.82300      -11.10700       -4.81800
C          3.29700      -12.06600       -3.36700
C          3.93000      -12.28200       -4.73500
C          3.03300      -11.68800       -5.63500
C          3.37800      -10.56600       -3.14100
C          1.78300      -12.20100       -3.65800
C          2.51000       -9.98500       -4.00200
H          3.98300       -5.88000       -5.27100
H          3.51600       -6.96400       -6.27900
H          2.91500       -6.92400       -4.85000
H          7.81800      -11.31600       -5.46500
H          8.48800      -10.32300       -6.45100
H          7.93800       -9.81600       -5.09200
H          4.98200       -9.84800       -9.20100
H          4.87900      -11.30400       -9.72300
H          4.12300      -10.88700       -8.43400
H          8.16600      -11.10800       -8.61300
H          7.28700      -11.41500       -9.85600
H          7.39400       -9.96200       -9.32000
H          5.23500      -12.76600       -7.06200
H          5.96000      -13.25100       -8.34600
H          6.78200      -12.87600       -7.08600
H          6.33400       -6.53800       -6.18200
H          7.25100       -7.57600       -5.48300
H          7.12200       -8.27300       -7.67900
H          5.57800       -8.11300       -7.68800
H          7.78600       -6.33000       -0.14000
H          8.38800       -6.70500       -1.51900
H          3.67300       -6.39400       -2.63000
H          3.70100       -7.89600       -2.24300
H          5.99800       -9.21100       -2.39900
H          7.24800       -8.47600       -2.95100
H          7.07600       -5.97400       -3.65400
H          5.73200       -5.21800       -3.48200
H          5.71800       -7.51400        0.75500
H          5.03000       -8.60300       -0.10900
H          4.80900       -4.67400       -1.23200
H          5.60200       -5.05900        0.04300
H          1.23300      -11.97200       -2.90600
H          1.55200      -13.09200       -3.93000
H          3.83100       -6.59800       -0.26400
H          7.38600       -8.59900       -0.59300
H          7.14800       -4.71800       -1.73000
H          1.01100      -10.93000       -5.28200
H          3.62800      -12.59600       -2.63900
H          4.50700      -13.03400       -4.94100
H          2.96000      -11.96200       -6.54400
H          3.59900      -10.15700       -2.27700
H          2.08600       -9.15800       -3.82300
Rh        10.11100      -15.16000       -3.63200
P         10.60100      -16.47100       -5.45200
P         11.75500      -16.40400       -2.60900
C          9.31600      -17.75500       -5.66200
C          9.45600      -15.21500       -7.67000
C          9.63100      -14.55200       -9.00400
C         11.41900      -16.71400       -8.14200
C         10.18900      -15.53900      -10.03000
C         11.92700      -13.82300       -8.41600
C         11.57300      -16.03900       -9.52200
C         11.78900      -14.52500       -7.02100
C         10.54600      -13.35000       -8.91300
C         12.53300      -14.86300       -9.38600
C         10.80300      -15.68700       -7.13200
C         12.13700      -17.44400       -5.15300
C         12.17700      -17.83600       -3.67000
C         13.30900      -15.51200       -2.57300
C         11.52900      -17.03900       -0.87300
C         12.67600      -17.97100       -0.52700
C         11.43200      -15.87700        0.08600
C         10.25000      -17.89000       -0.88200
C          9.12200      -13.32300       -4.46300
C          9.13000      -12.49900       -3.20800
C          8.78200      -14.47100       -1.92700
C          8.13900      -14.29600       -4.30700
C          7.65600      -12.56600       -2.80400
C          9.77000      -13.51200       -2.13200
C          7.59400      -14.13400       -2.89400
H          8.46400      -17.35100       -5.79800
H          9.52300      -18.31800       -6.39200
H          9.26300      -18.29500       -4.86200
H         13.99500      -16.05600       -2.18900
H         13.56900      -15.25000       -3.44400
H         13.22100      -14.72100       -2.02800
H         12.50700      -18.39100        0.33700
H         12.71800      -18.70100       -1.16900
H         13.49100      -17.53300       -0.50000
H         12.23100      -15.36400        0.08200
H         10.69900      -15.30500       -0.15800
H         11.27100      -16.18900        0.98100
H          9.49600      -17.39700       -1.09500
H         10.34300      -18.62500       -1.52000
H         10.12700      -18.31400       -0.01400
H         12.07200      -18.27900       -5.70000
H         12.88600      -16.98700       -5.42900
H         13.06900      -18.13200       -3.45900
H         11.57700      -18.55500       -3.49100
H          9.08500      -14.59600       -7.04800
H          8.87300      -15.96600       -7.74200
H         10.87700      -17.48300       -8.21900
H         12.29100      -16.97900       -7.82800
H          9.59600      -16.26800      -10.16100
H         10.30400      -15.09000      -10.87900
H         12.65300      -14.86000       -6.74300
H         11.49700      -13.89400       -6.37600
H         10.62900      -12.90500       -9.72800
H         10.19800      -12.73100       -8.24700
H         12.68300      -14.44200      -10.24700
H         13.39400      -15.14400       -9.06000
H          7.47700      -12.22200       -1.92400
H          7.06200      -12.10900       -3.41600
H          8.75700      -14.26100       -9.31600
H         12.52200      -13.08000       -8.34800
H         11.93300      -16.67800      -10.13900
H          9.36500      -12.98000       -5.33600
H          9.54200      -11.62600       -3.27600
H          8.67400      -14.97800       -1.10800
H          7.63700      -14.65200       -5.05400
H         10.41900      -13.27700       -1.44700
H          6.73400      -14.55000       -2.72200
F         11.25400       -7.45900       -2.84400
F         11.34100       -7.52600       -4.95700
F         10.26900       -9.18800       -3.78100
F          9.40300       -7.17500       -4.02900
B         10.45400       -7.90500       -3.98000
F          5.12000      -15.37700       -4.32100
F          6.05400      -15.90400       -6.19800
F          3.88900      -15.55200       -6.16900
F          4.73800      -17.30900       -5.41500
B          4.99700      -16.05200       -5.57600
