99
C:\Users\Javier\OneDrive - Universitat de Barcelona\Tesi\4 - Contribucions\Treballs\3-PhD\chapter_1\cif\pc2p\MOCVIL.pc2p.pdb
Ru        13.68400        9.67200        5.47400
P         14.84900        8.22600        4.11400
C         14.49100        8.15100        2.32700
C         14.56500        9.24300        1.55500
H         14.86800       10.05400        1.94600
C         14.21200        9.24600        0.19100
H         14.28500       10.04000       -0.32200
C         13.76200        8.08900       -0.38200
H         13.48300        8.07200       -1.29100
C         13.71900        6.96600        0.37200
H         13.43200        6.15300       -0.02200
C         14.07700        6.98000        1.67800
H         14.04400        6.17000        2.17100
C         16.66000        8.30800        4.11100
C         17.35900        8.94800        5.14300
H         16.87400        9.39500        5.82700
C         18.76900        8.94500        5.18800
H         19.23800        9.36800        5.89900
C         19.44900        8.31100        4.17000
H         20.39800        8.29500        4.18700
C         18.79600        7.71200        3.14900
H         19.28400        7.30300        2.44400
C         17.43300        7.69800        3.13600
H         16.99100        7.24800        2.42400
C         14.45300        6.54400        4.71700
H         14.82200        5.86900        4.09300
H         14.86500        6.40300        5.60600
C         12.94100        6.38600        4.81500
H         12.72400        5.65200        5.44300
H         12.57200        6.15100        3.92600
P         12.16900        7.97900        5.41800
C         10.71500        8.22200        4.28000
C         10.98400        8.24900        2.89500
H         11.86700        8.10200        2.57500
C          9.93500        8.49000        1.99600
H         10.10300        8.43800        1.06200
C          8.75300        8.78300        2.41000
H          8.08100        9.00500        1.77700
C          8.44400        8.77500        3.74300
H          7.55200        8.94500        4.02900
C          9.47100        8.50900        4.70300
H          9.27600        8.53600        5.63100
C         11.31700        7.48700        6.94100
C         11.45500        8.20800        8.13900
H         12.02700        8.96700        8.15100
C         10.79400        7.85800        9.29600
H         10.89700        8.37100       10.08900
C          9.98900        6.76000        9.27400
H          9.53400        6.50000       10.06500
C          9.82400        6.03400        8.13900
H          9.25200        5.27500        8.14200
C         10.48200        6.38600        6.98100
H         10.36300        5.86300        6.19800
C         14.59700        8.76600        6.95800
C         15.19100        8.29500        7.91500
C         16.09600        7.98600        8.97900
C         16.20200        6.71700        9.61300
N         17.08000        6.77400       10.59200
H         17.25600        6.12300       11.15700
C         17.71700        8.11000       10.58900
O         18.65000        8.40000       11.39000
C         17.06700        8.82900        9.61500
C         17.32700       10.10000        9.29800
N         17.58400       11.19800        9.11700
C         15.47800        5.56000        9.39600
C         14.46400        5.40000        8.42800
N         13.62700        5.12900        7.68900
C         15.72700        4.45900       10.22100
N         15.89000        3.60500       10.84900
C         14.59400       11.72100        5.96300
C         14.22600       11.72100        4.68300
C         12.84600       11.50400        4.45400
C         12.30700       11.39600        5.83300
C         13.42300       11.55000        6.72000
C         16.01200       12.04100        6.45600
H         16.64400       11.94300        5.71300
H         16.25600       11.42000        7.17500
H         16.04200       12.96000        6.79200
C         15.21800       12.09800        3.55700
H         15.60000       12.98200        3.74000
H         14.74900       12.11700        2.69800
H         15.93900       11.43400        3.52000
C         12.03800       11.57700        3.27400
H         11.83200       12.51300        3.07500
H         11.20300       11.08400        3.42000
H         12.52300       11.18200        2.52100
C         10.91100       11.39600        6.30100
H         10.83700       10.85600        7.11600
H         10.33300       11.01600        5.60600
H         10.63100       12.31500        6.49100
C         13.48000       11.62100        8.19400
H         14.22000       11.06800        8.52000
H         12.63700       11.29000        8.56800
H         13.61900       12.55100        8.47000
Cl        12.34700       13.10100       11.66800
Cl        10.17300       11.73500       11.11700
C         10.68000       13.01100       12.07900
H         10.55000       12.81100       13.04600
H         10.20000       13.84900       11.85800
