121
C:\Users\Javier\OneDrive - Universitat de Barcelona\Tesi\4 - Contribucions\Treballs\3-PhD\chapter_1\cif\pc2p\MOCVAD.pc2p.pdb
Ru         8.51100       11.09900       10.98100
P          8.91400       10.16500       13.03000
C          9.69100        8.50900       13.07000
C         10.68600        8.15500       14.00900
H         11.00300        8.79900       14.63200
C         11.19500        6.87500       14.01900
H         11.85900        6.63800       14.65500
C         10.74700        5.92600       13.10400
H         11.09100        5.04100       13.12300
C          9.80000        6.28100       12.17300
H          9.50000        5.64000       11.53900
C          9.27800        7.56600       12.14900
H          8.63100        7.80000       11.49300
C          9.88100       11.07300       14.29000
C          9.61400       10.93800       15.64800
H          8.88200       10.40400       15.93400
C         10.41300       11.57900       16.59000
H         10.21800       11.48900       17.51500
C         11.47300       12.33500       16.19100
H         12.02900       12.75500       16.83600
C         11.73500       12.48500       14.84200
H         12.47200       13.01400       14.56100
C         10.93100       11.87300       13.90000
H         11.10600       12.00500       12.97600
C          7.29600        9.90600       13.88600
H          7.40700        9.25800       14.62700
H          6.97500       10.76100       14.26600
C          6.28800        9.37600       12.88800
H          5.37700        9.43200       13.27100
H          6.48100        8.42500       12.69000
P          6.36700       10.36300       11.33000
C          5.53200        9.26100       10.12000
C          5.82500        7.90200       10.07500
H          6.43300        7.53000       10.70300
C          5.23100        7.07800        9.10900
H          5.41900        6.14800        9.10000
C          4.37300        7.61400        8.17900
H          3.98900        7.06000        7.51000
C          4.07500        8.95600        8.21900
H          3.47400        9.32500        7.58200
C          4.64300        9.77400        9.17800
H          4.42400       10.70000        9.19600
C          5.05900       11.62700       11.54100
C          5.23300       12.93100       11.08100
H          6.04700       13.17300       10.65600
C          4.23200       13.88200       11.23300
H          4.36600       14.76600       10.91300
C          3.05600       13.55200       11.83900
H          2.37900       14.20800       11.95100
C          2.85200       12.25600       12.29300
H          2.03600       12.03100       12.72100
C          3.83200       11.28800       12.12500
H          3.67200       10.39600       12.40900
C          8.15100       12.66900       12.05300
C          8.00100       13.69900       12.71700
C          7.79500       14.80400       13.49300
C          8.08500       16.25000       13.00300
C          7.19900       16.55300       11.84100
N          6.51200       16.78700       10.96400
C          9.49200       16.34300       12.55000
N         10.59000       16.39500       12.18900
C          7.76600       17.10900       14.20000
C          7.79400       18.51400       14.22300
N          7.79900       19.65100       14.28800
C          7.32700       16.30600       15.23800
N          6.95300       16.68000       16.44700
H          6.96400       17.53100       16.66900
H          6.69000       16.07600       17.03100
C          7.33500       14.92600       14.78500
C          6.95300       13.82400       15.59900
N          6.63100       12.94400       16.25800
C         10.25300       11.94200        9.86100
C         10.45400       10.55500        9.88000
C          9.34600        9.95800        9.19600
C          8.52100       11.02900        8.72300
C          9.05200       12.27300        9.16500
C         11.22800       13.00200       10.36700
H         12.01600       12.56300       10.74900
H         10.79200       13.54500       11.05700
H         11.50100       13.57700        9.62300
C         11.60200        9.79600       10.43900
H         12.28100        9.67100        9.74300
H         11.29400        8.92200       10.75500
H         11.99100       10.29700       11.18800
C          9.20100        8.49700        8.77600
H          8.27700        8.20700        8.92100
H          9.80600        7.94300        9.31100
H          9.42700        8.40700        7.82700
C          7.34000       10.83600        7.76400
H          6.66500       11.52600        7.93400
H          6.94600        9.95000        7.90600
H          7.65500       10.90900        6.83900
C          8.56900       13.60400        8.80600
H          9.24400       14.06200        8.26300
H          8.40000       14.12100        9.62200
H          7.73800       13.52400        8.29400
C         10.59400       11.85100       10.19000
C         10.16100       10.33100        9.70500
C          9.04400       10.34600        8.90300
C          8.42600       11.66800        8.75800
C          9.50700       12.38300        9.41000
C         11.68500       12.51300       10.51700
H         12.17600       12.75600        9.70500
H         12.25100       11.94900       11.08600
H         11.44000       13.32600       11.00800
C         11.28700        9.31600       10.01000
H         10.99300        8.41600        9.75900
H         11.49400        9.33700       10.96800
H         12.08700        9.55400        9.49700
C          8.55700        9.05400        8.23800
H          8.97500        8.96300        7.35500
H          7.58300        9.08500        8.13600
H          8.80400        8.28600        8.79500
C          7.33500       11.96200        7.84300
H          6.90300       12.80000        8.11000
H          6.67900       11.23400        7.87200
H          7.68700       12.05100        6.93300
C          9.18200       14.03100        9.31100
H          8.27500       14.16300        8.96400
H          9.82700       14.45900        8.70900
H          9.25200       14.43200       10.20300
