92
C:\Users\Javier\OneDrive - Universitat de Barcelona\Tesi\4 - Contribucions\Treballs\3-PhD\chapter_1\cif\pc2p\MOCXOT.pc2p.pdb
Ru         0.73400        5.20100       10.29200
P          1.55400        4.39900       12.25000
C          1.19000        5.37800       13.76300
C          1.85700        6.60200       13.99600
H          2.54900        6.87200       13.40300
C          1.53300        7.41200       15.05500
H          1.99600        8.23000       15.18300
C          0.53700        7.04000       15.93300
H          0.30500        7.60500       16.66100
C         -0.12700        5.83500       15.74500
H         -0.79800        5.56100       16.35900
C          0.18900        5.03100       14.66100
H         -0.29000        4.22100       14.52800
C          1.07400        2.73100       12.86000
C          0.09300        2.01400       12.22000
H         -0.31000        2.37000       11.43700
C         -0.31900        0.78100       12.69900
H         -0.99800        0.29600       12.24400
C          0.25800        0.25800       13.84200
H         -0.02200       -0.58900       14.16900
C          1.24100        0.96500       14.50700
H          1.62600        0.61500       15.30200
C          1.66000        2.19000       14.01000
H          2.35200        2.66600       14.45300
C          3.41700        4.34900       12.22500
H          3.77100        5.03400       12.84700
H          3.72400        3.46200       12.54000
C          3.97000        4.60600       10.81700
H          3.98000        3.76200       10.29800
H          4.89700        4.94800       10.87400
P          2.88800        5.84800        9.97900
C          3.55000        7.42200       10.66700
C          2.74400        8.30200       11.36400
H          1.82100        8.10900       11.47400
C          3.27400        9.47000       11.90500
H          2.71700       10.06300       12.39600
C          4.60400        9.76500       11.72800
H          4.96200       10.57100       12.08100
C          5.43200        8.88600       11.03400
H          6.35500        9.08000       10.93200
C          4.90300        7.73000       10.49300
H          5.46100        7.14100       10.00000
C          3.52000        5.97700        8.27000
C          4.22200        4.94800        7.63700
H          4.46200        4.16900        8.12500
C          4.56900        5.06000        6.30200
H          5.04800        4.35500        5.87900
C          4.22500        6.18700        5.57500
H          4.45500        6.25300        4.65500
C          3.55000        7.21200        6.19400
H          3.32200        7.99400        5.70500
C          3.20400        7.10600        7.52500
H          2.74000        7.82100        7.94200
C          1.38000        3.57400        9.24600
C          1.41000        3.44700        7.86600
H          1.11800        4.19000        7.35000
C          1.84400        2.29400        7.16800
C          1.88600        2.22000        5.77000
C          1.43600        3.30400        4.97100
N          1.05300        4.18800        4.33400
C          2.35600        1.06200        5.09200
N          2.76800        0.13400        4.55100
C          2.26400        1.20100        7.98800
H          2.54600        0.38400        7.59600
C          2.25300        1.34900        9.30800
H          2.55600        0.62000        9.83600
O          1.84400        2.46000        9.94900
C         -1.36800        4.94700        9.50500
C         -1.45800        5.36100       10.84700
C         -0.88300        6.67800       10.96300
C         -0.44800        7.05600        9.66600
C         -0.71900        5.97900        8.75800
C         -1.95700        3.69100        8.93600
H         -2.01300        3.00900        9.63900
H         -1.38800        3.36300        8.20900
H         -2.85400        3.87800        8.59000
C         -2.25900        4.68400       11.92900
H         -3.18700        4.99700       11.89200
H         -1.87700        4.90200       12.80400
H         -2.23600        3.71400       11.79500
C         -1.01900        7.58400       12.15000
H         -0.31500        8.26600       12.12400
H         -0.93400        7.05900       12.97400
H         -1.89600        8.02000       12.12900
C          0.00300        8.41400        9.24400
H         -0.77500        8.95400        8.99200
H          0.60700        8.33400        8.47500
H          0.47500        8.84700        9.98600
C         -0.64500        6.05500        7.26100
H         -0.73400        5.15400        6.88300
H          0.21800        6.43600        6.99600
H         -1.37000        6.62300        6.92700
