250
C:\Users\Javier\OneDrive - Universitat de Barcelona\Tesi\4 - Contribucions\Treballs\3-PhD\chapter_1\cif\pc2p\MOFFOC.pc2p.pdb
Rh        10.29400        9.46800        3.17000
P         12.01600        7.98900        3.05700
P         11.88100       10.90900        2.41600
Si        11.90700        3.41600        7.68900
Si        12.31400        5.01600       -2.71800
Si         9.98800       14.22700       -2.86900
Si        14.03000       14.79600        7.17600
F         14.58800        0.40200        5.54400
F         14.91200       -0.22600        7.57900
F         16.79400        1.91300        5.56900
F         17.13300        1.46900        7.68700
F         16.75300       -1.01800        5.34000
F         17.61500       -0.97300        7.32300
F         18.65200        0.24600        4.28500
F         19.35800        1.03000        6.14400
F         19.05700       -2.34400        5.28000
F         20.20500       -1.35400        6.91300
F         21.63400       -0.05700        5.02800
F         20.56000       -1.28100        3.50100
F         21.78400       -2.19600        4.97100
F         16.08200        5.80000       -5.40700
F         16.62700        4.56400       -3.79400
F         15.86800        3.82100       -7.04400
F         15.90900        2.35600       -5.37900
F         18.36700        4.64200       -6.09400
F         18.37900        2.95100       -4.74900
F         18.29900        3.24700       -8.21100
F         17.59500        1.49400       -7.19200
F         20.57300        3.16400       -6.62200
F         19.85000        1.08800       -6.06800
F         20.58400        2.54900       -9.08200
F         19.69300        0.61600       -8.77000
F         21.60100        1.01800       -7.89500
F         14.74900       15.24000       -3.75100
F         13.99000       17.03700       -2.88800
F         13.31500       15.78100       -6.05500
F         12.78400       17.66500       -5.15400
F         15.87100       16.30700       -5.93800
F         15.56200       18.10900       -4.67200
F         14.23700       17.55500       -7.83400
F         14.40300       19.26600       -6.64100
F         16.76400       17.35800       -8.39300
F         17.26800       18.59700       -6.61600
F         15.47300       19.43400       -9.46200
F         17.64800       19.54500       -9.13000
F         16.34900       20.69800       -7.87100
F         10.35400       18.32600        7.61000
F          9.75700       16.31100        8.10200
F         11.05100       16.39300       10.42600
F         11.96700       18.30200        9.85800
F          9.70900       19.58200        9.91500
F         10.05100       18.41600       11.73400
F          7.84900       18.00600        9.05200
F          8.35200       16.50800       10.55000
F          5.97700       17.65300       10.88900
F          7.50000       17.95300       12.50800
F          6.58500       20.06200        9.95900
F          5.79500       19.89000       11.99700
F          7.90200       20.41900       11.66500
C         12.13800        6.70200        4.27300
C         11.78000        5.40100        3.99400
C         11.69500        4.41600        5.03500
C         12.07800        4.71200        6.27200
C         12.47500        6.02900        6.63200
C         12.51000        6.99800        5.61700
C         12.40200        4.15800        9.30200
C         10.15200        2.78300        7.66400
C         12.89000        1.91700        7.23200
C         14.34400        2.04800        7.19900
C         15.12000        0.80000        6.72800
C         16.57200        1.00100        6.55400
C         17.44300       -0.27100        6.14900
C         18.80600       -0.04100        5.63500
C         19.83400       -1.19000        5.60800
C         21.03300       -1.17000        4.69900
C         12.02600        7.17900        1.46500
C         13.13000        6.38600        1.10200
C         13.22300        5.75800       -0.17200
C         12.19300        5.85700       -1.08300
C         11.08600        6.60400       -0.64400
C         11.01400        7.25700        0.52900
C         10.89000        5.37700       -3.85400
C         12.40100        3.20600       -2.38900
C         13.91400        5.52500       -3.50600
C         14.37100        4.45300       -4.49100
C         15.81000        4.59300       -4.86100
C         16.31200        3.55400       -5.78900
C         17.89500        3.42300       -5.93800
C         18.35500        2.54500       -7.02600
C         19.80800        2.02800       -7.04200
C         20.47800        1.52700       -8.29600
C         11.48800       11.96000        0.95000
C         11.71500       11.42300       -0.31400
C         11.39000       12.14100       -1.41800
C         10.69700       13.33500       -1.31400
C         10.44900       13.81500       -0.10700
C         10.86100       13.12600        1.07600
C          9.40700       13.07700       -4.08300
C          8.61600       15.40000       -2.39800
C         11.29300       14.94000       -3.78100
C         12.34200       15.56400       -3.23100
C         13.69900       16.06100       -3.77800
C         13.69000       16.69700       -5.11400
C         15.07200       17.29200       -5.66500
C         15.02400       18.12900       -6.89300
C         16.34900       18.49400       -7.61000
C         16.43400       19.63500       -8.57600
C         12.37700       12.09200        3.70300
C         11.97800       11.91500        5.01500
C         12.45500       12.74800        6.04100
C         13.38700       13.76600        5.74800
C         13.70800       13.89700        4.48600
C         13.29900       13.13000        3.41200
C         15.07200       16.12200        6.45300
C         14.88500       13.62300        8.29400
C         12.70700       15.56800        8.13400
C         12.02800       16.73400        7.56800
C         10.75400       17.21400        8.25500
C         10.87100       17.52600        9.68800
C          9.70400       18.36300       10.39800
C          8.33300       17.80900       10.33900
C          7.20200       18.35100       11.23900
C          6.84600       19.81200       11.22000
C         13.60200        8.90700        3.06900
C         13.43900       10.01500        2.05900
C          8.60500        9.55500        5.61000
C          8.03500       10.75400        4.85000
C          8.84000       11.08600        3.63400
C          8.50400       10.62600        2.41300
C          7.51200        9.51400        2.01500
C          7.41600        8.42200        3.01300
C          8.67600        7.94200        3.65300
C          9.21200        8.50000        4.82900
C          4.58500       11.78000        0.87200
C          5.02300       11.03300       -0.22000
C          6.28200       11.22100       -0.86800
C          7.15600       12.24800       -0.37800
C          6.69800       12.99000        0.60900
C          5.48800       12.71500        1.23200
C          2.53200       10.08500        1.09700
C          1.42000        9.86700        0.27200
C          1.05500        8.54500       -0.09200
C          1.73800        7.47800        0.32000
C          2.81400        7.67500        1.15400
C          3.15900        8.92300        1.46800
C          3.16400       11.47600        3.14200
C          2.00100       11.39800        3.89300
C          1.85800       11.31200        5.26900
C          2.99500       11.31200        5.98800
C          4.20200       11.35700        5.36800
C          4.32600       11.48000        3.98000
C          2.17900       12.82200        0.97300
C          1.95100       12.95300       -0.39600
C          1.16300       13.98800       -0.90000
C          0.55900       14.87800       -0.03000
C          0.90200       14.80900        1.35100
C          1.67600       13.77400        1.85500
B          3.09300       11.55000        1.56900
H         11.60600        5.15500        3.11600
H         11.35900        3.57100        4.84500
H         12.71500        6.23900        7.50800
H         12.77800        7.86400        5.82800
H         12.95000        3.53000        9.78900
H         12.91400        4.95800        9.14300
H         11.62500        4.37100        9.81500
H          9.61200        3.30000        8.26700
H          9.79300        2.85700        6.77600
H         10.13500        1.85900        7.93700
H         12.59900        1.62100        6.35500
H         12.67400        1.21100        7.85900
H         14.56200        2.78700        6.61100
H         14.64300        2.28200        8.08800
H         13.82500        6.27200        1.71300
H         13.97800        5.27000       -0.39200
H         10.34600        6.64900       -1.20700
H         10.25600        7.77000        0.71500
H         10.09800        4.95000       -3.51900
H         11.09000        5.04400       -4.73100
H         10.75100        6.32500       -3.89700
H         13.28200        2.97200       -2.10700
H         12.17700        2.72500       -3.19200
H         11.76900        2.97600       -1.70100
H         13.78800        6.37000       -3.97100
H         14.58400        5.65200       -2.82100
H         14.23600        3.57900       -4.11000
H         13.84400        4.51100       -5.30600
H         12.10000       10.57700       -0.40300
H         11.62800       11.82500       -2.26000
H         10.00100       14.62400       -0.02500
H         10.70900       13.49100        1.91700
H          9.69400       12.19000       -3.86100
H          8.44600       13.10500       -4.12400
H          9.76200       13.31500       -4.94900
H          8.30100       15.86400       -3.18100
H          7.88400       14.90700       -2.01100
H          8.93700       16.04000       -1.75900
H         10.88300       15.57600       -4.38700
H         11.65500       14.23000       -4.33500
H         11.95600       16.35600       -2.83000
H         12.59100       14.98900       -2.49400
H         11.39100       11.22600        5.22100
H         12.14500       12.62900        6.91300
H         14.29500       14.59500        4.28500
H         13.60800       13.28600        2.54900
H         15.98200       15.80600        6.37800
H         14.74600       16.35200        5.58300
H         15.05400       16.89400        7.02100
H         14.22900       13.11800        8.78400
H         15.42600       13.02300        7.77600
H         15.43500       14.10700        8.90800
H         13.07200       15.82700        8.99300
H         12.02900       14.89100        8.30600
H         12.66000       17.46800        7.56400
H         11.81400       16.53300        6.64500
H         14.33200        8.32400        2.82300
H         13.77100        9.27200        3.95000
H         14.18900       10.62200        2.11400
H         13.40800        9.64100        1.16500
H          7.88200        9.16100        6.12800
H          9.25900        9.88700        6.23800
H          8.00900       11.52500        5.43800
H          7.11700       10.55700        4.58400
H          9.59200       11.62000        3.72400
H          8.92800       11.04900        1.70200
H          7.79600        9.13600        1.16600
H          6.63600        9.90400        1.88700
H          6.99200        7.66300        2.57900
H          6.81500        8.71800        3.71600
H          9.12700        7.23600        3.25400
H         10.03200        8.16800        5.12700
H          4.46500       10.36800       -0.54700
H          6.53800       10.68800       -1.59100
H          8.00800       12.38300       -0.73300
H          7.19000       13.72500        0.89500
H          5.26900       13.23300        1.97400
H          0.91200       10.58900       -0.03200
H          0.30800        8.42200       -0.63900
H          1.48900        6.62500        0.05000
H          3.29200        6.95300        1.48900
H          3.92000        9.01700        2.00100
H          1.20500       11.41000        3.40500
H          1.01800       11.25800        5.67400
H          2.95200       11.27500        6.91600
H          4.97600       11.30800        5.88700
H          5.17300       11.56200        3.59800
H          2.31600       12.33400       -0.98200
H          1.05600       14.08200       -1.82000
H         -0.04100       15.51100       -0.34300
H          0.58600       15.46500        1.92800
H          1.84900       13.71700        2.76600
