105
C:\Users\Javier\OneDrive - Universitat de Barcelona\Tesi\4 - Contribucions\Treballs\3-PhD\chapter_1\cif\pc2p\MOJCAQ.pc2p.pdb
Rh         0.93400       12.52900        4.17800
P          2.02200       12.17400        6.16000
P          2.46400       11.01300        3.38200
O          0.79000       14.51500        7.40900
O         -0.85800       14.59400        9.66100
O         -1.27300       12.29100       11.16600
O         -0.17800        9.97200       10.37400
O          4.70300        9.53900        2.09400
O          6.60400       10.60500        0.29200
O          6.49600       13.23700       -0.35500
O          4.67000       14.89200        0.78700
B          1.64700       18.05200        3.90900
F          1.40900       17.43000        5.11700
F          1.16100       17.55300        2.65500
F          1.67800       19.33300        3.89100
F          3.03600       17.98300        3.93000
C          0.11200       13.38600        2.29800
H          0.59300       13.36300        1.44400
C         -0.39400       14.70100        2.94800
H         -0.07700       15.54700        2.57100
C         -0.12200       14.43700        4.44200
H          0.18600       15.13600        5.05800
C         -0.97300       13.40900        4.83200
H         -1.31700       13.31900        5.74500
C         -1.79800       13.06500        3.59600
H         -2.62600       12.55700        3.72800
C         -0.70900       12.43900        2.68300
H         -0.87700       11.64100        2.13800
C         -1.90700       14.43300        2.93300
H         -2.40600       15.07200        3.46700
H         -2.27100       14.38900        2.03500
C          2.69100       10.46700        6.07600
H          3.29800       10.31400        6.81600
H          1.96600        9.82600        6.14000
C          3.41500       10.28600        4.78100
H          3.55300        9.34000        4.61900
H          4.28500       10.71000        4.83500
C          1.10300       12.20900        7.73600
C          1.49400       15.60100        8.05400
H          0.90600       16.04100        8.67100
H          1.79100       16.22800        7.39100
H          2.25300       15.25200        8.52700
C          0.58200       13.41500        8.17600
C         -0.53300       15.10100       10.96500
H         -1.06700       14.65100       11.62400
H         -0.71200       16.04300       10.99500
H          0.39700       14.94600       11.14600
C         -0.23500       13.42400        9.31800
C         -2.59200       12.03700       10.91800
H         -3.07600       12.86400       10.87900
H         -2.95000       11.48900       11.62000
H         -2.67600       11.57700       10.07900
C         -0.47100       12.27800       10.01700
C         -0.00500        8.72800        9.85600
H         -0.39600        8.68700        8.98000
H         -0.42900        8.08100       10.42700
H          0.93400        8.53200        9.79600
C          0.09900       11.06100        9.59100
C          0.87000       11.03000        8.46600
H          1.24200       10.22600        8.18000
C          3.47800       13.23500        6.40900
C          4.54800        8.46300        1.09700
H          3.61000        8.31600        0.93200
H          4.94200        7.65600        1.43100
H          4.97700        8.71800        0.27900
C          4.49400       12.93400        7.30800
H          4.41100       12.16900        7.83000
C          6.46800       10.29700       -1.08700
H          5.79000        9.62700       -1.19900
H          7.30300        9.96800       -1.42600
H          6.21700       11.08900       -1.56700
C          5.59300       13.69600        7.45700
H          6.28200       13.43400        8.02400
C          6.09400       13.67500       -1.62500
H          5.56500       12.99400       -2.04700
H          6.87000       13.85500       -2.16200
H          5.57300       14.47700       -1.53700
C          3.81700       15.78800        1.55100
H          2.89800       15.62900        1.32200
H          4.04400       16.69900        1.34700
H          3.94400       15.62900        2.48900
C          5.67300       14.91300        6.72300
H          6.40000       15.48000        6.84700
C          4.70800       15.24700        5.85900
H          4.77200       16.04100        5.37700
C          3.58800       14.39500        5.67300
H          2.93000       14.61700        5.05500
C          3.68600       11.69400        2.24300
C          4.68400       10.84400        1.64900
C          5.59700       11.42100        0.77400
C          5.52000       12.71100        0.45800
C          4.57200       13.60600        1.08300
C          3.67900       13.04000        1.96000
H          3.05000       13.58300        2.37600
C          1.76000        9.60600        2.46200
C          1.42400        9.76900        1.13300
H          1.58200       10.59200        0.73000
C          0.86900        8.76800        0.38700
H          0.58700        8.91700       -0.48700
C          0.73600        7.46100        1.00900
H          0.50800        6.71400        0.50200
C          0.95900        7.34600        2.40300
H          0.69600        6.57600        2.85200
C          1.55900        8.35200        3.08600
H          1.83800        8.21900        3.96400
