75
C:\Users\Javier\OneDrive - Universitat de Barcelona\Tesi\4 - Contribucions\Treballs\3-PhD\chapter_1\cif\pc2p\MOZGOX.pc2p.pdb
Ru         9.58800        4.17600        4.18300
P          8.00500        3.23800        2.90600
P          7.80000        4.76700        5.47600
O          7.68000        5.52300        1.10900
O          9.68000        2.23100        5.00800
O          5.49300        4.83800        7.46400
O          9.17500        6.87100        7.06300
C          6.31200        3.84400        3.28800
C          6.25000        4.02600        4.80100
C          8.15200        3.22400        1.08600
C          8.04500        4.43300        0.37000
C          8.31100        4.46800       -0.99800
C          8.68200        3.31600       -1.64900
C          8.78000        2.11900       -0.97900
C          8.51700        2.08800        0.38500
C          7.84700        6.83100        0.52900
C          7.97900        1.52700        3.47800
C          8.92400        1.28300        4.50000
C          9.02000       -0.04400        4.99200
C          8.16700       -1.02400        4.53900
C          7.18800       -0.75400        3.59400
C          7.11100        0.51900        3.06000
C          7.76100        4.26500        7.24100
C          6.63000        4.33900        8.05500
C          6.67600        3.94800        9.38500
C          7.88000        3.51100        9.91900
C          9.01800        3.44600        9.14700
C          8.95600        3.81700        7.81000
C          4.27900        4.79000        8.21200
C          7.44100        6.56300        5.50700
C          8.22500        7.44900        6.26800
C          8.01800        8.81300        6.19700
C          7.02900        9.31500        5.37500
C          6.25300        8.48600        4.62800
C          6.45500        7.10900        4.69500
C         10.04600        7.72200        7.81800
C         11.77400        4.54000        4.43000
C         11.12200        5.66100        4.83500
C         10.37900        6.14700        3.75000
C         10.60200        5.31800        2.65700
C         11.48500        4.29000        3.07200
H          6.14500        4.68700        2.83800
H          5.64800        3.19900        2.99700
H          6.10000        3.16300        5.22000
H          5.50000        4.59800        5.02300
H          8.23700        5.26800       -1.46800
H          8.87000        3.34700       -2.55900
H          9.01900        1.34300       -1.43200
H          8.58700        1.28000        0.83900
H          8.76600        6.95400        0.27900
H          7.59900        7.50000        1.17100
H          7.28900        6.91000       -0.24900
H          9.66500       -0.25500        5.62800
H          8.24900       -1.88700        4.87400
H          6.59500       -1.41700        3.32400
H          6.47100        0.70600        2.41200
H          5.91000        3.97700        9.91200
H          7.91900        3.25800       10.81300
H          9.82100        3.15700        9.51700
H          9.72200        3.76600        7.28400
H          4.09900        3.88400        8.47200
H          3.55700        5.11800        7.67100
H          4.36400        5.33700        8.99600
H          8.54300        9.39200        6.70200
H          6.89200       10.23300        5.33100
H          5.59200        8.83500        4.07600
H          5.91800        6.54400        4.18600
H         10.58600        8.24100        7.21700
H         10.61400        7.18500        8.37500
H          9.52200        8.31100        8.36700
H         12.32600        4.01700        4.96600
H         11.16100        6.04000        5.68300
H          9.83000        6.89700        3.76000
H         10.23800        5.42000        1.80700
H         11.80800        3.59100        2.55100
