28
C:\Users\Javier\OneDrive - Universitat de Barcelona\Tesi\4 - Contribucions\Treballs\3-PhD\chapter_1\cif\pc2p\MUGWAM.pc2p.pdb
Rh        11.02400       -8.09100        8.11300
P         12.30500       -9.56300        9.35100
P         10.51100       -7.17800       10.18900
C         14.05900       -9.95200        8.85300
C         14.76400       -8.66800        8.59200
C         14.76500      -10.77200       10.00600
C         14.04900      -10.90600        7.62400
C         16.27100       -9.06200        8.10300
C         16.99900       -9.76400        9.32100
C         16.31200      -11.03500        9.47300
C         16.29200      -11.79500        8.27700
C         15.51700      -11.15400        7.12400
C         16.36700      -10.02300        6.74300
C         11.47300      -11.16700        9.61400
C         12.47600       -8.84500       11.08300
C         11.26000       -8.23900       11.48500
C         10.99700       -5.44600       10.51700
C         12.36900       -5.30900       10.62600
C         12.97100       -3.79600       10.81100
C         10.71000       -2.99200       10.04900
C         10.29200       -4.46100        9.72300
C          8.63800       -7.19500       10.58200
C          8.37700       -6.82400       12.00700
C          6.82500       -6.88300       12.24600
C          6.25700       -8.26000       11.98500
C          6.56400       -8.71800       10.41900
C          8.11700       -8.61400       10.20200
C         12.21300       -3.07300       10.01700
