57
C:\Users\Javier\OneDrive - Universitat de Barcelona\Tesi\4 - Contribucions\Treballs\3-PhD\chapter_1\cif\pc2p\NAHBAZ.pc2p.pdb
Pd        -0.00000       -0.38900       15.09300
P         -0.83000       -2.09700       16.45600
Si         0.99700        1.30200       13.81000
Si        -1.92000       -0.00700       13.71600
C         -0.15000        1.79100       12.43100
C          0.27000        2.69800       11.44700
C         -0.52400        3.00300       10.41400
C         -1.83700        2.46800       10.30600
C         -2.27400        1.57600       11.27200
C         -1.42000        1.21200       12.35200
C         -0.51500       -2.09600       18.19600
C         -2.60100       -2.39300       16.38500
C         -0.06000       -3.64200       15.83600
H          1.25100        2.33000       14.56200
H          2.11600        0.85700       13.30000
H         -2.31200       -1.13000       13.17900
H         -2.88900        0.48700       14.42900
H          1.19000        3.11300       11.44100
H         -0.28200        3.69400        9.73800
H         -2.40900        2.75200        9.58100
H         -3.22100        1.18900       11.19900
H         -0.74500       -2.93100       18.64300
H          0.43200       -1.94500       18.42000
H         -0.99700       -1.40100       18.67900
H         -3.09800       -1.71600       16.85000
H         -2.92800       -2.42500       15.48000
H         -2.83800       -3.24400       16.79600
H          0.82700       -3.73700       16.25800
H         -0.56900       -4.40900       16.17400
C          0.06000       -3.64200       14.35100
P          0.83000       -2.09700       13.73100
Si        -0.99700        1.30200       16.37600
C          0.15000        1.79100       17.75600
C         -0.27000        2.69800       18.74000
C          0.52400        3.00300       19.77200
C          1.83700        2.46800       19.88100
C          2.27400        1.57600       18.91500
C          1.42000        1.21200       17.83400
Si         1.92000       -0.00700       16.47000
H          2.31200       -1.13000       17.00700
H          2.88900        0.48700       15.75700
H          3.22100        1.18900       18.98700
H          2.40900        2.75200       20.60500
H          0.28200        3.69400       20.44800
H         -1.19000        3.11300       18.74600
H         -1.25100        2.33000       15.62500
H         -2.11600        0.85700       16.88600
C          0.51500       -2.09600       11.99000
H          0.74500       -2.93100       11.54300
H         -0.43200       -1.94500       11.76700
H          0.99700       -1.40100       11.50700
C          2.60100       -2.39300       13.80100
H          3.09800       -1.71600       13.33600
H          2.92800       -2.42500       14.70700
H          2.83800       -3.24400       13.39100
H         -0.82700       -3.73700       13.92800
H          0.56900       -4.40900       14.01300
