67
C:\Users\Javier\OneDrive - Universitat de Barcelona\Tesi\4 - Contribucions\Treballs\3-PhD\chapter_1\cif\pc2p\NASHAR.pc2p.pdb
Ru         2.83300        4.51900        3.98700
P          3.64700        6.39200        4.87000
P          1.40800        4.54300        5.69900
C          1.84200        4.58100        1.94200
H          1.11600        5.19100        1.66300
C          3.22200        4.81300        1.80200
H          3.62400        5.62300        1.39800
C          3.92400        3.69900        2.21800
H          4.90000        3.56000        2.14400
C          2.96500        2.73800        2.65100
H          3.16800        1.81400        2.94300
C          1.68200        3.28100        2.49500
C          0.37900        2.55800        2.71600
H          0.11500        2.11300        1.89500
H         -0.30500        3.19400        2.97400
H          0.49000        1.89900        3.41800
C          1.66600        6.04600        6.78000
H          0.99200        6.72400        6.55900
H          1.54400        5.79400        7.71900
C          3.02600        6.62600        6.59900
H          3.64500        6.19800        7.22500
H          3.00000        7.58300        6.80700
C          3.35200        7.95800        3.96400
C          2.41600        8.91200        4.36100
H          1.95500        8.80700        5.17400
C          2.16400       10.00800        3.56600
H          1.53400       10.64600        3.84700
C          2.81900       10.18800        2.36200
H          2.61600       10.92500        1.81500
C          3.77200        9.27500        1.97300
H          4.24100        9.39600        1.16700
C          4.03600        8.17500        2.77600
H          4.69600        7.56100        2.50800
C          5.45000        6.54900        5.23000
C          6.26800        5.43300        5.17200
H          5.92100        4.61300        4.87100
C          7.61100        5.52300        5.55600
H          8.16500        4.76400        5.51300
C          8.11900        6.72100        5.99600
H          9.01500        6.77800        6.27800
C          7.31400        7.84300        6.02900
H          7.67300        8.66900        6.30200
C          5.98200        7.76100        5.65900
H          5.43600        8.52500        5.69600
C         -0.39700        4.70800        5.34900
C         -0.77900        5.72600        4.46900
H         -0.12200        6.28800        4.10300
C         -2.10400        5.92300        4.12600
H         -2.34400        6.61400        3.53800
C         -3.07800        5.08200        4.66200
H         -3.98200        5.20900        4.43900
C         -2.71700        4.07300        5.50800
H         -3.37700        3.50000        5.85400
C         -1.39000        3.88500        5.86600
H         -1.16200        3.19400        6.46100
C          1.46300        3.10500        6.85000
C          2.09300        1.94100        6.42000
H          2.47500        1.91900        5.56200
C          2.17300        0.80800        7.22200
H          2.59800        0.03000        6.91000
C          1.61800        0.84900        8.48500
H          1.65700        0.08800        9.03600
C          1.00800        1.99000        8.94400
H          0.65600        2.01600        9.81400
C          0.91200        3.10800        8.12000
H          0.46700        3.87600        8.43100
H          3.76000        3.92400        5.14100
