81
C:\Users\Javier\OneDrive - Universitat de Barcelona\Tesi\4 - Contribucions\Treballs\3-PhD\chapter_1\cif\pc2p\NEDMIV.pc2p.pdb
C          3.49300        8.15500        4.00300
C          4.26200        8.74900        4.68400
C          2.21300        9.35200        1.60800
C          1.02200        9.28000        2.41400
C          0.22900        8.21100        1.89100
C          0.91600        7.61700        0.80200
C          2.15400        8.31600        0.63700
C          3.26400       10.40500        1.71700
H          3.42800       10.60000        2.64300
H          2.96800       11.20100        1.26900
H          4.07500       10.09000        1.30800
C          0.65200       10.19800        3.54100
H          0.15900        9.70800        4.20400
H          0.10900       10.91400        3.20500
H          1.44800       10.55900        3.93800
C         -1.18300        7.91700        2.31700
H         -1.34200        6.97200        2.26600
H         -1.79500        8.37800        1.73900
H         -1.31300        8.21400        3.22100
C          0.37200        6.61000       -0.16900
H          1.04200        5.94700       -0.35000
H          0.12900        7.05100       -0.98600
H         -0.40200        6.18700        0.21000
C          3.14700        8.09200       -0.47700
H          4.01200        8.40000       -0.19900
H          2.86800        8.57900       -1.25500
H          3.19000        7.15700       -0.68200
C          5.29500        5.79500        2.28300
C          6.13100        4.67900        2.30900
H          5.76800        3.83500        2.45600
C          7.50200        4.81400        2.12000
H          8.05400        4.06700        2.14200
C          8.03200        6.05900        1.90100
H          8.94900        6.15400        1.77400
C          7.22200        7.17500        1.86400
H          7.59400        8.01300        1.70700
C          5.84200        7.04800        2.06300
H          5.29600        7.80000        2.04800
C          3.16400        4.40300        1.11400
C          2.16800        3.42900        1.18000
H          1.71500        3.29300        1.98200
C          1.84100        2.65900        0.08000
H          1.17200        2.01500        0.14400
C          2.50400        2.84400       -1.11500
H          2.27500        2.33500       -1.86000
C          3.50800        3.78900       -1.20100
H          3.96500        3.91000       -2.00100
C          3.83800        4.55600       -0.09100
H          4.52000        5.18400       -0.15500
C          3.38700        4.49800        4.01500
H          2.88300        3.69400        3.81400
H          4.28200        4.23400        4.28100
C          2.71400        5.25100        5.16300
H          3.35100        5.84300        5.59300
H          2.38200        4.62400        5.82500
C          0.06500        4.90100        4.16800
C         -0.39900        4.09900        5.20800
H         -0.10800        4.25300        6.07800
C         -1.29600        3.06600        4.95100
H         -1.59800        2.53100        5.64800
C         -1.74000        2.83400        3.67100
H         -2.34900        2.15100        3.50500
C         -1.28300        3.61800        2.63200
H         -1.57800        3.45900        1.76500
C         -0.38400        4.64300        2.88000
H         -0.07700        5.16600        2.17400
C          0.61800        7.10100        5.90200
C          1.47000        7.83100        6.73400
H          2.38000        7.87000        6.54600
C          0.96100        8.50100        7.84100
H          1.53500        8.97800        8.39500
C         -0.39700        8.46300        8.12400
H         -0.73300        8.89500        8.87700
C         -1.24900        7.77700        7.27600
H         -2.16400        7.77000        7.44800
C         -0.75000        7.10300        6.17700
H         -1.33300        6.64700        5.61400
F          5.14100        9.44300        5.39000
P          3.47800        5.57600        2.49700
P          1.31800        6.22400        4.45200
Ru         2.13100        7.38900        2.69800
