95
C:\Users\Javier\OneDrive - Universitat de Barcelona\Tesi\4 - Contribucions\Treballs\3-PhD\chapter_1\cif\pc2p\NIDYOQ.pc2p.pdb
Pd         9.00500        3.59100       15.54100
P          8.70000        2.05400       17.10800
P          9.68700        1.91700       14.24600
O          8.35000        5.11800       16.84400
H          8.92200        5.52600       17.12400
H          7.88300        5.66500       16.46500
O          9.52500        5.04600       14.08300
H          8.92400        5.51700       13.99800
H         10.12100        5.50800       14.43100
C          9.49900        0.49300       16.57800
H         10.45900        0.51100       16.82100
H          9.07600       -0.27100       17.04400
C          9.35700        0.31800       15.07200
H          8.44100        0.00900       14.85400
H          9.99800       -0.36500       14.75100
C          6.95000        1.78600       17.40200
C          6.21000        2.75600       18.08300
H          6.64400        3.52500       18.43400
C          4.84000        2.59600       18.24700
H          4.33800        3.25000       18.71900
C          4.20700        1.47400       17.71900
H          3.27200        1.36300       17.83000
C          4.93100        0.52900       17.03700
H          4.48900       -0.22800       16.66900
C          6.30200        0.66800       16.88100
H          6.79800        0.00100       16.41800
C          9.45400        2.49400       18.68900
C          8.99500        1.93200       19.87900
H          8.24100        1.35200       19.87400
C          9.64000        2.22400       21.06700
H          9.33700        1.83000       21.87600
C         10.72300        3.08400       21.09100
H         11.15500        3.28300       21.91400
C         11.17400        3.65400       19.91700
H         11.91200        4.25400       19.93500
C         10.55900        3.35600       18.70800
H         10.88400        3.73300       17.89900
C         11.46000        2.06600       13.90700
C         12.20200        3.09200       14.48500
H         11.79700        3.67400       15.11800
C         13.53300        3.26000       14.13600
H         14.03700        3.97300       14.51100
C         14.12800        2.39100       13.24300
H         15.03900        2.50900       13.00300
C         13.40600        1.35700       12.70100
H         13.82600        0.75400       12.09900
C         12.06500        1.18300       13.02400
H         11.56700        0.46800       12.64300
C          8.91500        1.89200       12.62100
C          9.29300        2.88100       11.71600
H          9.92900        3.53900       11.97300
C          8.74600        2.91000       10.44300
H          9.00200        3.59100        9.83200
C          7.82800        1.95000       10.05800
H          7.46600        1.96200        9.18100
C          7.44100        0.98000       10.94800
H          6.80600        0.32500       10.68200
C          7.96800        0.94500       12.23400
H          7.68400        0.27800       12.84700
S          6.51900        6.92700       14.32000
O          7.80400        7.00000       13.62100
O          5.61100        7.96500       13.90400
O          6.69000        6.86600       15.77400
C          5.84000        5.35500       13.86000
C          5.76700        5.02600       12.52400
H          6.08300        5.63400       11.86600
C          5.23400        3.81000       12.14300
H          5.17600        3.59200       11.21900
C          4.78100        2.89800       13.09000
C          4.88300        3.24000       14.41000
H          4.58800        2.62500       15.07100
C          5.40900        4.47100       14.81600
H          5.46800        4.69100       15.73700
C          4.18700        1.56200       12.70100
H          4.49500        0.87400       13.32800
H          4.47400        1.32800       11.79500
H          3.20900        1.61800       12.73100
S         11.70500       -2.80300       16.60300
O         10.48800       -2.79600       17.40400
O         12.57900       -3.89100       16.93700
O         11.42700       -2.70500       15.16900
C         12.51600       -1.28600       17.04000
C         12.35800       -0.77600       18.30200
H         11.84400       -1.24700       18.94700
C         12.95400        0.43700       18.63300
H         12.83700        0.80000       19.50300
C         13.71900        1.12300       17.69800
C         13.88800        0.57100       16.45300
H         14.43000        1.02200       15.81600
C         13.28600       -0.62900       16.10300
H         13.40100       -0.99200       15.23200
C         14.33300        2.46100       18.03100
H         13.87300        3.16500       17.53000
H         15.28200        2.45500       17.78700
H         14.24300        2.63200       18.99200
