63
C:\Users\Javier\OneDrive - Universitat de Barcelona\Tesi\4 - Contribucions\Treballs\3-PhD\chapter_1\cif\pc2p\NIFRID.pc2p.pdb
Rh        -7.46200       -1.99700       -4.97800
P         -9.70700       -1.94400       -5.54000
P         -7.41100       -3.76200       -6.45000
F        -11.16200       -6.18000       -5.34200
F        -12.81200       -4.76000       -6.00200
F        -13.13800       -7.01100       -6.15700
F        -11.68700       -5.98800       -7.55100
C         -9.96500       -2.91300       -7.08900
C         -9.11000       -4.18000       -7.03100
C        -10.68900       -2.84900       -4.28900
C        -10.63500       -0.35200       -5.81100
C        -12.02300       -0.59900       -6.41500
C        -10.75200        0.37300       -4.45400
C         -9.79100        0.51100       -6.79600
C         -6.53300       -3.33600       -7.98000
C         -6.70400       -5.39800       -5.92800
C         -5.16200       -5.28800       -5.85300
C         -7.08900       -6.54000       -6.89100
C         -7.25500       -5.73600       -4.51500
C         -5.67900       -2.32700       -3.73400
C         -5.30900       -1.49800       -4.76000
C         -5.51200       -0.05200       -4.29900
C         -7.05400        0.02300       -4.16300
C         -7.40900       -0.77900       -3.12200
C         -6.09500       -1.37900       -2.55400
C         -5.12900       -0.21500       -2.81200
B        -12.20600       -5.98800       -6.26300
H         -9.70700       -2.39800       -7.89000
H        -10.90000       -3.14400       -7.23700
H         -9.50000       -4.81700       -6.40600
H         -9.04500       -4.64000       -7.87900
H        -11.58700       -3.01500       -4.59400
H        -10.77500       -2.32000       -3.47000
H        -10.29300       -3.67600       -4.04900
H        -12.50900        0.23000       -6.49400
H        -12.53800       -1.15600       -5.79800
H        -11.97200       -1.02200       -7.23600
H         -9.90400        0.53000       -4.09500
H        -11.25900       -0.17800       -3.82800
H        -11.23000        1.20400       -4.53400
H         -9.67000        0.01600       -7.61700
H         -8.92400        0.62700       -6.40200
H        -10.18200        1.33100       -6.97200
H         -6.53300       -4.05400       -8.61600
H         -5.64800       -3.04900       -7.83600
H         -6.99500       -2.58300       -8.44500
H         -4.78700       -6.12600       -5.49200
H         -4.91600       -4.60800       -5.19800
H         -4.74000       -5.10300       -6.65700
H         -8.06700       -6.59500       -6.92100
H         -6.75100       -7.34300       -6.58300
H         -6.79400       -6.34400       -7.76900
H         -8.21600       -5.80800       -4.53500
H         -7.02500       -5.03400       -3.91500
H         -6.89600       -6.55200       -4.20600
H         -5.30700       -3.23000       -3.57100
H         -4.64300       -1.74700       -5.42100
H         -5.09800        0.63700       -4.85900
H         -7.55600        0.78000       -4.40100
H         -8.16900       -0.60900       -2.57400
H         -6.08400       -1.75500       -1.71700
H         -5.28500        0.58600       -2.25200
H         -4.15300       -0.39700       -2.65100
