153
C:\Users\Javier\OneDrive - Universitat de Barcelona\Tesi\4 - Contribucions\Treballs\3-PhD\chapter_1\cif\pc2p\NINJEB.pc2p.pdb
H         -8.24900      -10.92900      -16.30900
H         -6.77100      -10.20100      -14.75600
H         -6.77800      -11.68100      -14.75900
H        -10.01000       -9.59300      -15.82900
H         -8.74400       -8.89400      -15.15200
H         -9.54100       -9.43700      -11.86000
H         -8.67900       -8.66100      -12.77700
H        -10.70600       -8.89700      -13.73600
H         -8.67500      -13.22600      -12.78700
H         -9.53500      -12.45400      -11.86300
H        -11.63400      -10.94400      -14.16000
H        -11.22800      -10.94100      -12.61500
H        -10.69800      -12.99100      -13.73200
H         -8.73000      -12.98000      -15.15500
H        -10.00400      -12.28900      -15.82900
H         -3.83900      -12.05100      -10.75500
H         -3.55100      -11.33200      -12.16200
H         -3.87100       -9.58000      -10.77700
H         -5.04700      -10.31700       -9.97700
H         -3.80000      -11.58900      -14.26900
H         -3.20800      -12.48100      -16.34800
H         -4.20700      -14.45700      -17.10200
H         -5.79900      -15.54400      -15.77500
H         -6.39200      -14.65200      -13.69500
H         -7.80300      -13.74500      -10.68700
H         -7.91200      -15.76200       -9.50700
H         -6.01700      -17.12300       -9.33500
H         -4.01100      -16.46800      -10.34700
H         -3.90100      -14.45200      -11.52900
H         -6.62500       -7.88600      -14.22000
H         -5.51900       -6.87300      -16.01600
H         -3.18600       -7.00000      -16.17400
H         -1.96300       -8.13700      -14.53700
H         -3.07100       -9.15000      -12.74100
H         -8.12000       -8.42400      -10.27200
H         -8.56300       -6.50900       -9.00400
H         -7.01700       -4.75400       -8.95700
H         -5.02800       -4.91300      -10.17900
H         -4.58300       -6.82900      -11.44700
C         -8.52100      -10.93100      -15.34700
C         -9.34100       -9.68200      -15.10600
C        -10.07200       -9.67000      -13.74800
C        -10.86500      -10.94300      -13.53500
C        -10.06600      -12.21500      -13.74200
C         -9.33300      -12.19700      -15.10600
C         -4.23400      -11.47900      -11.46100
C         -4.66500      -10.16400      -10.87900
C         -5.15200      -13.03700      -13.78500
C         -4.20700      -12.39200      -14.57400
C         -3.85400      -12.92100      -15.81000
C         -4.44800      -14.09600      -16.25700
C         -5.39300      -14.74100      -15.46900
C         -5.74600      -14.21100      -14.23300
C         -5.84100      -13.90900      -11.22000
C         -7.03200      -14.29800      -10.61900
C         -7.09900      -15.49600       -9.91600
C         -5.97200      -16.30600       -9.81600
C         -4.78100      -15.91500      -10.41700
C         -4.71400      -14.71800      -11.11800
C         -4.95200       -8.61300      -13.31100
C         -5.68000       -7.93700      -14.28400
C         -5.02000       -7.33600      -15.35000
C         -3.63700       -7.41000      -15.44500
C         -2.91000       -8.08600      -14.47200
C         -3.56600       -8.68900      -13.40600
C         -6.31000       -7.80700      -10.97900
C         -7.49100       -7.71200      -10.25400
C         -7.75500       -6.57400       -9.50000
C         -6.83800       -5.53000       -9.47300
C         -5.65500       -5.62600      -10.19800
C         -5.39100       -6.76300      -10.95200
N         -7.26700      -10.93900      -14.52300
N         -9.07600       -9.48200      -12.65300
N         -9.07300      -12.40500      -12.65800
P         -5.73900      -12.31000      -12.19300
P         -5.90100       -9.32100      -11.91600
Cl        -8.14200      -10.94400      -10.04700
Ru        -7.48700      -10.94200      -12.40000
H         -5.00600      -11.60900       -9.97400
H         -3.84300      -12.31700      -10.81400
H         -3.53200      -10.48800      -12.15900
H         -3.85100       -9.79800      -10.74300
H         -3.09700      -12.72500      -12.73900
H         -1.97100      -13.72300      -14.53200
H         -3.17700      -14.86300      -16.18200
H         -5.50800      -15.00400      -16.03800
H         -6.63300      -14.00700      -14.24500
H         -8.10000      -13.45900      -10.26200
H         -8.53700      -15.36500       -9.03700
H         -7.02300      -17.10200       -8.93000
H         -5.01200      -17.02000      -10.17400
H         -4.58600      -15.04800      -11.42500
H         -6.38500       -7.22100      -13.70300
H         -5.79400       -6.35400      -15.79500
H         -4.21400       -7.46600      -17.11600
H         -3.22800       -9.44200      -16.34700
H         -3.81900      -10.30900      -14.25500
H         -7.75400       -8.10400      -10.69300
H         -7.89300       -6.12600       -9.48800
H         -5.95800       -4.79300       -9.36800
H         -4.01400       -5.41200      -10.39800
H         -3.89400       -7.45400      -11.46100
C         -4.64200      -11.73700      -10.88500
C         -4.22500      -10.36800      -11.46100
C         -4.97100      -13.27200      -13.32300
C         -3.58600      -13.18800      -13.40800
C         -2.91800      -13.78100      -14.47200
C         -3.63500      -14.45700      -15.45400
C         -5.01800      -14.54300      -15.36900
C         -5.68700      -13.95000      -14.30300
C         -6.32200      -14.07300      -10.94100
C         -7.47000      -14.17000      -10.24700
C         -7.72300      -15.29800       -9.51900
C         -6.82500      -16.34200       -9.46400
C         -5.62900      -16.29900      -10.18400
C         -5.39100      -15.12900      -10.92600
C         -5.15900       -8.84600      -13.78300
C         -5.74500       -7.67300      -14.24000
C         -5.39300       -7.15700      -15.48300
C         -4.45400       -7.81700      -16.26700
C         -3.86700       -8.99200      -15.81000
C         -4.22000       -9.50600      -14.56800
C         -5.82900       -7.98800      -11.18900
C         -6.97900       -7.56100      -10.60900
C         -7.08300       -6.39200       -9.90700
C         -5.92900       -5.61400       -9.84500
C         -4.77600       -5.98000      -10.43400
C         -4.71700       -7.17200      -11.07700
P         -5.90000      -12.57600      -11.92100
P         -5.74400       -9.56500      -12.19400
F         -0.34400       -9.69700      -11.96200
F         -0.89500      -10.02300      -11.96500
F          0.89100      -11.87500      -13.77600
P          0.00100      -10.94400      -12.87700
F          0.37800      -12.19500      -13.80400
F        -10.11900      -15.30700      -15.11200
F        -10.74800      -16.40400      -13.27100
P         -9.47800      -16.41600      -14.10600
F         -8.86100       -4.37000      -13.25900
F        -10.11400       -4.35300      -15.09200
P         -9.47800       -5.47100      -14.09600
F         -0.35000      -12.17900      -11.96500
F          0.36100       -9.70600      -13.77600
F          1.24400      -10.62900      -11.96500
F         -1.25200      -11.25000      -13.77600
F        -10.11600      -17.52500      -15.11200
F         -8.85200      -17.52200      -13.27100
F         -8.19700      -16.41400      -15.11200
F         -8.83200      -15.32100      -13.27100
F        -10.74000       -5.48900      -13.25900
F        -10.12800       -6.58300      -15.09200
F         -8.83100       -6.55600      -13.25900
F         -8.19000       -5.47900      -15.09200
