101
C:\Users\Javier\OneDrive - Universitat de Barcelona\Tesi\4 - Contribucions\Treballs\3-PhD\chapter_1\cif\pc2p\NOMNUZ.pc2p.pdb
Ru        11.23600        4.13500       12.14000
P         10.99700        6.05000       13.31100
C          9.38300        6.91900       13.28000
C          9.24500        8.23100       12.85900
H         10.01700        8.72600       12.60900
C          7.99100        8.84300       12.79500
H          7.91600        9.73800       12.48900
C          6.86700        8.14600       13.17500
H          6.01000        8.56000       13.13600
C          6.98900        6.84900       13.61200
H          6.21400        6.37300       13.88500
C          8.22800        6.22400       13.66300
H          8.29200        5.32400       13.95700
C         11.32600        6.01800       15.11300
C         11.92800        4.90600       15.68700
H         12.19000        4.17500       15.13800
C         12.15100        4.85200       17.06100
H         12.56300        4.08600       17.44400
C         11.77800        5.90400       17.86400
H         11.93100        5.86400       18.80100
C         11.17700        7.02200       17.30800
H         10.91900        7.74900       17.86100
C         10.95400        7.07800       15.93500
H         10.54600        7.84600       15.55500
C         12.16200        7.26900       12.59200
H         11.97100        8.17100       12.95400
H         13.09300        7.02800       12.83100
C         12.00100        7.27300       11.06700
H         12.82700        7.62100       10.64800
H         11.25400        7.87000       10.81400
P         11.66600        5.55600       10.44700
C         10.19300        5.95400        9.29600
C          9.01900        6.43800        9.80100
H          8.97700        6.69200       10.71600
C          7.85400        6.57100        8.98000
H          7.02800        6.84800        9.35600
C          7.94300        6.30400        7.67400
H          7.17800        6.41700        7.12100
C          9.12300        5.86900        7.11900
H          9.17100        5.69400        6.18500
C         10.25400        5.68300        7.92000
H         11.06500        5.37300        7.53400
C         13.02100        5.20800        9.27600
C         13.59200        3.95200        9.23000
H         13.34000        3.29600        9.86900
C         14.53500        3.63900        8.25400
H         14.91300        2.76800        8.22100
C         14.92300        4.59400        7.33200
H         15.56300        4.37900        6.66400
C         14.37400        5.86800        7.38600
H         14.65100        6.53000        6.76200
C         13.42700        6.17400        8.34700
H         13.04900        7.04600        8.37600
C         13.14800        4.25800       12.67000
C         14.29900        4.27300       13.09400
C         15.51300        4.22900       13.72000
C         16.51100        3.94600       14.20700
C         17.69400        3.66700       14.97900
C         17.84900        2.44500       15.62100
H         17.19800        1.76300       15.49400
C         18.93500        2.20600       16.44500
H         19.00700        1.37800       16.90600
C         19.90500        3.15600       16.59900
H         20.64100        2.99200       17.17800
C         19.82200        4.35200       15.91800
H         20.52100        4.99100       15.98200
C         18.68900        4.60800       15.13100
H         18.60500        5.44800       14.69500
C         10.80700        2.15400       13.11900
H         11.24600        1.86100       13.91000
C          9.60700        2.89500       13.04600
H          9.09800        3.19600       13.79200
C          9.28300        3.11700       11.68200
H          8.52500        3.58300       11.35200
C         10.30100        2.51400       10.90800
H         10.34200        2.50800        9.96000
C         11.24100        1.92700       11.76900
H         12.02700        1.46100       11.50600
C         10.29000        5.53900        9.29800
C          9.12100        6.21900        9.68100
C          8.05800        6.25000        8.87700
C          8.01600        5.49100        7.67200
C          9.12500        4.77100        7.31500
C         10.26200        4.80500        8.13100
C         16.61900        4.45300       14.37000
C         17.79400        4.65500       15.16300
C         18.75600        3.68900       15.33700
C         19.82300        3.89000       16.19800
C         19.98200        5.09600       16.83300
C         19.04000        6.07100       16.68300
C         17.96200        5.86000       15.85100
H          9.08500        6.66000       10.52300
H          7.31300        6.78900        9.11300
H          7.23800        5.48600        7.12700
H          9.12200        4.25200        6.51900
H         11.03200        4.31100        7.87400
H         18.68800        2.87000       14.86100
H         20.44900        3.19000       16.35000
H         20.74600        5.25100       17.37600
H         19.12800        6.89400       17.14900
H         17.31700        6.54900       15.74400
