98
C:\Users\Javier\OneDrive - Universitat de Barcelona\Tesi\4 - Contribucions\Treballs\3-PhD\chapter_1\cif\pc2p\NONZOH.pc2p.pdb
C          3.52000        8.66800       10.59300
H          3.39200        9.39100       11.25800
H          4.45500        8.70700       10.27100
C          3.26200        7.33400       11.23900
H          3.97700        7.15400       11.90000
H          2.40200        7.37500       11.72700
C          3.21300        6.20900       10.26000
H          4.11400        6.08500        9.86900
H          2.97800        5.37700       10.74100
C          3.26100        8.69100       10.76600
H          2.61300        8.87900       11.48900
H          4.00400        9.34300       10.84400
C          3.80400        7.30800       10.93300
H          4.10400        7.17700       11.86700
H          4.58300        7.18100       10.33700
C          2.73400        6.29900       10.59600
H          3.09300        5.38700       10.73900
H          1.96800        6.42400       11.21000
Pd         0.59700        6.99500        6.28700
Br        -1.57600        6.79000        7.47200
P          2.55500        7.14600        5.20300
P          0.03500        5.49300        4.63000
N          2.04400        7.81200        8.76400
N          2.60500        8.86400        9.47400
C          1.32800        8.24900        7.71600
C          1.38800        9.65500        7.79300
C          0.76800       10.68100        7.03700
H          0.23300       10.47600        6.27900
C          0.96800       11.98600        7.43900
H          0.47400       12.68100        7.02000
C          1.88800       12.30900        8.45600
H          2.10400       13.22000        8.61000
C          2.48100       11.33700        9.23300
H          3.04500       11.55700        9.96500
C          2.20500        9.99500        8.88100
C          2.24900        6.41900        9.17600
H          2.91100        5.99700        8.57100
H          1.39600        5.92600        9.08200
C          2.78500        5.60700        4.24500
H          3.53200        5.71200        3.60300
H          2.99900        4.85500        4.85400
C          1.47900        5.32300        3.49500
H          1.50300        4.40500        3.12400
H          1.38400        5.95800        2.74100
C          4.04400        7.40300        6.19300
C          4.42600        8.70100        6.52700
H          3.97000        9.44100        6.14500
C          5.46600        8.91900        7.41300
H          5.71900        9.80500        7.64400
C          6.13700        7.83600        7.96100
H          6.84400        7.98100        8.57800
C          5.78300        6.55300        7.61500
H          6.26300        5.81800        7.97900
C          4.73300        6.32000        6.73800
H          4.48600        5.43100        6.51100
C          2.55400        8.47400        3.97100
C          1.45700        9.31400        3.82300
H          0.69100        9.19300        4.36900
C          1.48000       10.33000        2.87600
H          0.73100       10.90700        2.77500
C          2.60700       10.49800        2.07500
H          2.63000       11.19500        1.43000
C          3.68900        9.65700        2.21300
H          4.45200        9.77600        1.66000
C          3.67500        8.63900        3.15100
H          4.42100        8.05700        3.23700
C         -1.33900        5.92700        3.54000
C         -1.77100        7.25300        3.49600
H         -1.40600        7.88900        4.10000
C         -2.72900        7.64500        2.57500
H         -2.99700        8.55500        2.52400
C         -3.29300        6.70700        1.72900
H         -3.95400        6.97400        1.10200
C         -2.89600        5.37800        1.79200
H         -3.31000        4.73400        1.23200
C         -1.90000        4.99000        2.66700
H         -1.59700        4.09000        2.67500
C         -0.29300        3.83200        5.28400
C          0.74100        2.90600        5.39900
H          1.60900        3.12200        5.07800
C          0.50700        1.66600        5.98100
H          1.21800        1.04100        6.06400
C         -0.74800        1.33900        6.43700
H         -0.90900        0.48400        6.82200
C         -1.77600        2.25800        6.33500
H         -2.64400        2.03400        6.65100
C         -1.54900        3.51000        5.77200
H         -2.25500        4.14300        5.72200
B          6.43900        6.06200        2.08500
F          7.65700        5.56400        1.68400
F          5.42000        5.46600        1.32700
F          6.39900        7.43700        1.85000
F          6.20100        5.85000        3.40500
C          8.14000        4.54100        5.67500
H          7.25500        4.34700        6.06900
H          8.00200        5.08300        4.85800
Cl         9.11000        5.46400        6.83400
Cl         8.93700        3.02700        5.24800
