116
C:\Users\Javier\OneDrive - Universitat de Barcelona\Tesi\4 - Contribucions\Treballs\3-PhD\chapter_1\cif\pc2p\NOQZEA.pc2p.pdb
Pd        -0.35300       11.34900       14.10800
S          0.82600        9.38700       13.63800
S          0.59200       10.79100       16.15200
P         -1.54700       13.10600       14.83800
P         -1.07400       11.89500       12.05100
N          2.27600        8.64700       15.76500
C         -0.70200       14.28100       15.93300
H         -1.29400       15.05700       16.09400
H         -0.52900       13.84500       16.80400
C          0.60000       14.76900       15.36300
H          1.01600       15.39600       15.99000
H          0.43300       15.22200       14.51000
H          1.19800       14.00700       15.21600
C         -2.98600       12.59400       15.86600
H         -2.65200       12.17100       16.69700
H         -3.50000       13.40000       16.12500
C         -3.87700       11.66400       15.18900
H         -4.62200       11.43300       15.78300
H         -3.38400       10.84900       14.95400
H         -4.22600       12.08000       14.37500
C         -2.15300       14.07700       13.42300
H         -3.01500       14.50300       13.66300
H         -1.50300       14.79500       13.21600
C         -2.34800       13.19700       12.18600
H         -2.31900       13.76500       11.37700
H         -3.24200       12.77300       12.22900
C         -1.79600       10.56600       11.03900
H         -2.17000       10.96100       10.21100
H         -1.07700        9.93800       10.77300
C         -2.89200        9.79100       11.75700
H         -3.24600        9.09700       11.16200
H         -3.61500       10.40400       12.01000
H         -2.52200        9.37200       12.56200
C          0.22900       12.56600       10.96400
H          0.89300       11.85300       10.79100
H         -0.17900       12.81000       10.09600
C          0.95700       13.78600       11.51900
H          1.64000       14.07800       10.87900
H          1.38500       13.55300       12.37000
H          0.31400       14.51200       11.66500
C          1.41800        9.45300       15.30400
C          2.77900        8.90100       17.12300
H          2.07100        9.35800       17.66200
C          3.99700        9.82400       16.99100
H          3.72900       10.65700       16.54700
H          4.68900        9.37900       16.45700
H          4.35300       10.02900       17.88100
C          3.17700        7.59800       17.80800
C          2.79200        7.37900       19.11100
H          2.23600        8.01300       19.55100
C          3.20600        6.24500       19.78700
H          2.94500        6.10800       20.68800
C          3.99400        5.32100       19.15500
H          4.28800        4.54900       19.62400
C          4.36100        5.51000       17.83200
H          4.88700        4.85600       17.38700
C          3.96000        6.65100       17.16300
H          4.22100        6.78600       16.26000
Pd         4.77000       13.08400       22.35700
S          5.58300       13.15300       24.53500
S          6.11600       14.98700       22.38400
P          4.22200       13.16200       20.17200
P          3.37500       11.29500       22.47500
N          7.29600       15.16400       24.88300
C          5.58300       12.60800       19.10000
H          5.22700       12.44600       18.19000
H          6.25400       13.33300       19.03500
C          6.28500       11.32200       19.59700
H          7.00000       11.07700       18.97300
H          5.63300       10.59200       19.64800
H          6.66700       11.48000       20.48600
C          3.71800       14.77500       19.54700
H          3.04300       15.15100       20.16500
H          4.50500       15.37600       19.56900
C          3.15200       14.80200       18.17100
H          2.92300       15.72400       17.93000
H          2.34700       14.24600       18.13800
H          3.81600       14.45400       17.53800
C          2.79000       12.06500       19.88100
H          1.95300       12.56300       20.05600
H          2.78300       11.77800       18.93400
C          2.84400       10.84500       20.77500
H          3.47900       10.18800       20.39400
H          1.95000       10.42300       20.81000
C          3.96400        9.70600       23.10800
H          3.25500        9.03000       22.96600
H          4.75000        9.42800       22.57300
C          4.34800        9.69400       24.56100
H          4.65500        8.79700       24.81000
H          3.57100        9.93600       25.10700
H          5.06900       10.34000       24.71400
C          1.84200       11.63600       23.36700
H          1.12900       11.26600       22.78900
H          1.87900       11.04400       24.16000
C          1.38300       12.68100       23.78600
H          0.53100       12.50700       24.23500
H          1.23800       13.29700       23.03700
H          2.01300       13.08200       24.42000
C          6.51300       14.60300       24.08400
C          8.02000       16.35600       24.46800
H          7.61400       16.70700       23.62300
C          9.47800       15.96600       24.19800
H          9.50900       15.27700       23.50100
H          9.88100       15.61700       25.02000
H          9.97800       16.75600       23.89900
C          7.94300       17.43300       25.53600
C          7.44000       17.16700       26.79100
H          7.12800       16.29300       26.99700
C          7.38100       18.15100       27.74800
H          7.01100       17.96000       28.60200
C          7.86000       19.42000       27.47000
H          7.82300       20.09800       28.13300
C          8.38900       19.69200       26.23400
H          8.72100       20.56000       26.04000
C          8.43500       18.69800       25.27300
H          8.80900       18.88700       24.42000
