39
C:\Users\Javier\OneDrive - Universitat de Barcelona\Tesi\4 - Contribucions\Treballs\3-PhD\chapter_1\cif\pc2p\NORJIN.pc2p.pdb
Pd         5.81900        5.93200       11.37200
Co         5.50800        7.82900       13.24300
P          3.72400        4.86100       11.49000
P          6.19400        4.65700        9.56700
O          6.32600        5.35700       14.46500
O          3.65500        8.85800       15.20900
O          4.12200        8.62800       10.86800
O          7.86600        9.47700       13.48800
C          7.67900        6.77200       11.05400
C          6.02100        6.41800       13.98400
C          4.42600        8.45200       14.34100
C          4.69900        8.11600       11.78300
C          7.07500        8.80500       13.24000
C          3.58300        3.97800        9.84500
C          4.94800        3.34200        9.50400
C          2.29700        5.78200       11.59700
C          1.82500        6.27700       12.74400
C          0.77800        7.28500       13.19300
C          0.24500        7.35500       12.23200
C          0.34400        7.19600       10.97600
C          1.41000        6.36500       10.71300
C          3.47600        3.50100       12.60400
C          2.27300        2.88200       12.85200
C          2.10700        1.78600       13.67400
C          3.16500        1.36100       14.24800
C          4.48900        1.78600       14.12400
C          4.56200        2.97000       13.24000
C          7.76700        3.92500        9.34900
C          8.04300        2.61700        9.86000
C          9.28300        2.03300        9.76700
C         10.30200        2.74100        9.20900
C         10.11100        3.90800        8.62000
C          8.83400        4.47300        8.72800
C          5.81500        5.72900        8.01500
C          6.05300        4.86200        6.85300
C          5.74300        5.46300        5.76700
C          5.45100        6.73600        5.50400
C          5.10700        7.32000        6.52700
C          5.34900        6.98400        7.89100
