83
C:\Users\Javier\OneDrive - Universitat de Barcelona\Tesi\4 - Contribucions\Treballs\3-PhD\chapter_1\cif\pc2p\NUCGOJ.pc2p.pdb
C          5.51000        9.25500        1.32600
H          6.11500        9.99500        1.58100
H          5.33400        9.32400        0.35500
C          4.19400        9.39100        2.08800
H          3.65900       10.11600        1.67900
H          4.38900        9.64900        3.02400
C          7.45900        7.43300        0.23200
H          7.91100        8.30800        0.05900
C          8.53800        6.38100        0.47800
H          8.11400        5.51400        0.65400
H          9.07900        6.64200        1.25100
H          9.11200        6.30900       -0.31200
C          6.64700        7.06300       -1.00600
H          7.24600        6.98400       -1.77800
H          5.98000        7.76200       -1.18000
H          6.19300        6.20800       -0.85600
C          7.48200        7.98600        3.10100
H          8.04100        7.16600        3.22100
C          8.45300        9.14800        2.87700
H          7.94900        9.98700        2.81400
H          8.95100        9.00300        2.04400
H          9.08100        9.20000        3.62700
C          6.69900        8.17400        4.39600
H          7.31800        8.17200        5.15500
H          6.05600        7.44100        4.49800
H          6.21900        9.02700        4.36700
C          2.07300        8.07000        3.53800
H          1.35600        7.37700        3.47400
C          2.82900        7.82400        4.84600
H          3.51700        8.51300        4.96000
H          3.25200        6.94000        4.81700
H          2.20100        7.86100        5.59700
C          1.38600        9.43500        3.53700
H          0.77900        9.49600        4.30500
H          0.87600        9.54400        2.70700
H          2.06300       10.14200        3.60000
C          2.07100        8.06400        0.62600
H          1.78400        9.02200        0.62100
C          0.80400        7.21300        0.68900
H          0.26400        7.37200       -0.11200
H          0.28800        7.45500        1.48600
H          1.04900        6.26500        0.73500
C          2.82200        7.80900       -0.68200
H          3.18700        6.89900       -0.67600
H          3.55500        8.45400       -0.76900
H          2.20600        7.90900       -1.43700
C          5.79500        4.54500        2.04300
C          3.88700        3.74200        4.98900
H          3.09000        3.98600        5.52200
H          4.45500        4.54800        4.89700
C          4.65600        2.65300        5.69200
H          4.10100        1.84800        5.75300
H          4.89800        2.95200        6.59400
H          5.47000        2.44900        5.18600
C          2.64100        3.72000       -0.03400
H          3.18200        4.53700       -0.17300
H          1.69900        3.93900       -0.24500
C          3.10800        2.66700       -0.94900
H          4.04700        2.45800       -0.75400
H          3.02700        2.97800       -1.87500
H          2.56200        1.86200       -0.82700
C          0.60700        4.19200        3.80800
H          0.12600        4.75900        4.46300
H          1.06400        3.46300        4.29800
C         -0.34900        3.62800        2.80400
H         -0.79900        4.36000        2.33500
H         -1.01600        3.07600        3.26400
H          0.14100        3.07900        2.15800
O          6.47800        3.62400        2.02900
O          3.48800        3.28800        3.70600
O          2.73700        3.32100        1.31200
O          1.58100        4.99100        3.05300
Si         3.04700        4.40000        2.54000
P          6.33100        7.64200        1.68500
P          3.19400        7.83100        2.09000
Rh         4.69000        6.02200        2.07300
C          0.37500        4.13100        2.91900
H          0.55600        3.34800        2.34200
H         -0.38800        4.64000        2.54500
C          0.11000        3.71500        4.32500
H          0.87900        3.21000        4.66600
H         -0.69000        3.15000        4.35400
H         -0.03100        4.51000        4.88000
