110
C:\Users\Javier\OneDrive - Universitat de Barcelona\Tesi\4 - Contribucions\Treballs\3-PhD\chapter_1\cif\pc2p\NUCHAW.pc2p.pdb
C          4.59200        2.43500        5.60400
H          3.84900        2.63300        6.22700
H          5.26700        3.15400        5.69900
C          4.05700        2.43400        4.16600
H          4.01500        3.36500        3.83300
H          3.13600        2.06800        4.16200
C          6.57100        1.27000        7.39500
H          6.94000        0.41200        7.75300
C          7.75300        2.03800        6.78900
H          7.45600        2.93100        6.51400
H          8.09300        1.55200        6.00900
H          8.46400        2.12200        7.45800
C          5.98000        2.02000        8.58300
H          6.68700        2.21300        9.23200
H          5.28900        1.46900        9.00500
H          5.58200        2.86000        8.27400
C          4.00300       -0.02000        7.01700
H          3.60100        0.64800        7.64500
C          2.91200       -0.50100        6.06800
H          3.29700       -1.12600        5.41800
H          2.52800        0.26800        5.59600
H          2.21000       -0.95300        6.58100
C          4.52100       -1.19900        7.83900
H          3.76800       -1.64500        8.28100
H          5.15100       -0.87500        8.51500
H          4.97500       -1.83500        7.24800
C          6.19700        2.69600        2.22100
H          5.60900        3.43200        1.88500
C          7.17800        3.29600        3.22700
H          7.77000        2.59200        3.56700
H          6.68100        3.69200        3.97200
H          7.71600        3.98700        2.78700
C          6.96200        2.12100        1.03100
H          7.52300        2.82000        0.63400
H          6.32600        1.79300        0.36100
H          7.52800        1.38100        1.33300
C          3.96400        0.89500        1.69600
H          4.52200        0.44500        0.99700
C          2.98500       -0.15900        2.22400
H          2.36800        0.25800        2.86100
H          3.48500       -0.87300        2.67200
H          2.47700       -0.53600        1.47500
C          3.23200        2.04500        1.00200
H          2.63900        1.68500        0.31100
H          3.88600        2.64700        0.58900
H          2.70300        2.54000        1.66200
C          7.07300       -1.58700        5.21700
C          6.71000       -1.23400        2.42400
H          7.61300       -1.60300        2.51400
H          6.69300       -0.58700        1.68700
H          6.07900       -1.95900        2.23700
O          7.62300       -2.37200        5.78800
P          5.36100        0.81500        6.07000
P          5.12000        1.42600        3.03500
Rh         6.15800       -0.26400        4.23100
C          4.96500        9.54100        5.56100
H          4.27700       10.24200        5.68800
H          5.72800        9.75500        6.15500
C          5.44000        9.55800        4.10100
H          6.36600        9.21100        4.05600
H          5.44900       10.49200        3.77200
C          3.09100        8.32000        7.42700
H          2.75900        7.45200        7.79600
C          3.71500        9.08000        8.59400
H          4.06800        9.93700        8.27600
H          4.44300        8.54800        8.97800
H          3.03300        9.24200        9.28000
C          1.86800        9.06000        6.87700
H          1.16700        9.08700        7.56000
H          1.53300        8.59200        6.08300
H          2.12200        9.97400        6.63300
C          5.67800        7.09100        6.92900
H          6.10000        7.76700        7.53300
C          5.22700        5.90400        7.77600
H          4.75100        5.26100        7.21000
H          4.63000        6.21700        8.48600
H          6.01000        5.47100        8.17500
C          6.72300        6.63300        5.91800
H          7.46600        6.20100        6.39000
H          7.05900        7.40700        5.42000
H          6.31800        5.99500        5.29400
C          3.21200        9.78900        2.25400
H          3.76600       10.55300        1.92500
C          2.23400       10.33100        3.30000
H          1.65100       11.00100        2.88600
H          2.73600       10.74200        4.03400
H          1.68900        9.59500        3.65000
C          2.44300        9.21700        1.06200
H          1.91200        8.44600        1.35500
H          3.07700        8.93300        0.37000
H          1.84800        9.90400        0.69700
C          5.45500        8.05000        1.60800
H          4.87100        7.64000        0.90800
C          6.18200        9.22300        0.94900
H          6.78400        9.64200        1.59900
H          5.52500        9.88200        0.64000
H          6.70100        8.89700        0.18500
C          6.43700        6.96700        2.05700
H          6.91600        6.61700        1.27800
H          5.94500        6.24000        2.49300
H          7.08000        7.35100        2.69000
C          2.56400        5.48100        5.25400
C          2.76100        5.86200        2.45400
H          2.92100        4.89700        2.52500
H          3.26300        6.22100        1.69300
H          1.80400        6.02600        2.32200
O          2.04900        4.69300        5.86500
P          4.25700        7.90000        6.04900
P          4.35300        8.53800        3.00600
Rh         3.40300        6.81800        4.23900
