105
C:\Users\Javier\OneDrive - Universitat de Barcelona\Tesi\4 - Contribucions\Treballs\3-PhD\chapter_1\cif\pc2p\NUFJON.pc2p.pdb
Rh        -0.14900       13.30500       11.35700
Cl        -0.42900       11.80900        9.52100
P         -0.34300       11.33400       12.58200
C          1.28200       10.35500       12.33700
H          1.75200       10.30300       13.20700
H          1.05600        9.43300       12.06300
C          2.24100       10.94700       11.30200
H          2.01100       10.61000       10.40100
H          3.16900       10.66900       11.50900
P          2.12800       12.72500       11.32800
P         -0.34300       11.33400       12.58200
C          0.87900       10.22300       11.90500
H          0.85900        9.34900       12.36700
H          0.73300       10.08100       10.93700
C          2.20200       10.95100       12.16000
H          2.95100       10.43000       11.77800
H          2.35300       11.04300       13.13400
P          2.12800       12.72500       11.32800
C         -1.45200       14.65100       12.56400
C         -0.29100       15.36000       12.16800
C         -0.28900       15.47900       10.73300
C         -1.41700       14.78700       10.25200
C         -2.12900       14.23700       11.37300
C         -1.98100       14.57400       13.94600
H         -2.63200       13.84400       14.00700
H         -2.41800       15.42100       14.17700
H         -1.24300       14.40600       14.57000
C          0.60400       16.13800       13.09600
H          0.17500       16.98900       13.32700
H          1.46100       16.31400       12.65400
H          0.75800       15.61900       13.91400
C          0.52400       16.42700        9.90000
H          1.35800       16.64000       10.36900
H          0.01300       17.24900        9.75000
H          0.73100       16.00800        9.03800
C         -1.86400       14.69500        8.82300
H         -2.51800       15.40200        8.63900
H         -2.27800       13.81900        8.66600
H         -1.09100       14.80200        8.23100
C         -3.45900       13.55500       11.27600
H         -3.38200       12.77300       10.68800
H         -4.11900       14.17800       10.90800
H         -3.74400       13.26600       12.16800
C         -0.16400       11.24200       14.41500
C         -0.47300       10.08300       15.13400
F         -0.99000        9.02500       14.46400
C         -0.27600        9.95300       16.48000
H         -0.52500        9.15200       16.92600
C          0.28700       10.99900       17.18600
H          0.41400       10.92200       18.12400
C          0.67000       12.15800       16.53000
H          1.07500       12.87700       17.00100
C          0.44200       12.23300       15.17100
F          0.86700       13.36300       14.54200
C         -1.88000       10.39500       12.27700
C         -2.05000        9.37000       11.34600
F         -0.99300        8.95600       10.62200
C         -3.28200        8.75100       11.13000
H         -3.37600        8.10500       10.44000
C         -4.33200        9.06900       11.90000
H         -5.15500        8.61100       11.78100
C         -4.23400       10.04500       12.85700
H         -4.97900       10.28000       13.40000
C         -3.02400       10.67700       13.00300
F         -2.95000       11.62800       13.96500
C          3.12200       12.76900        9.78800
C          2.72900       13.31900        8.58100
F          1.54100       13.93900        8.49600
C          3.49100       13.29800        7.43400
H          3.16400       13.67600        6.62700
C          4.73600       12.71600        7.48500
H          5.27900       12.70000        6.70500
C          5.20100       12.16200        8.64600
H          6.06100       11.76100        8.68200
C          4.40300       12.19600        9.75200
F          4.89600       11.68100       10.90100
C          3.27400       13.60700       12.45200
C          3.80000       13.16200       13.65700
F          3.46400       11.93800       14.09900
C          4.65700       13.89200       14.43200
H          4.98900       13.53400       15.24600
C          5.03000       15.14000       14.02700
H          5.62700       15.65700       14.55800
C          4.54200       15.64400       12.86200
H          4.78300       16.51700       12.57500
C          3.69800       14.87100       12.10900
F          3.20600       15.38700       10.94800
O          3.23900       17.00200        8.12300
C          5.35600       16.41000        8.96000
H          5.56000       16.31000        9.91400
H          6.13800       16.77200        8.49500
H          5.12600       15.53400        8.58300
C          4.19300       17.34700        8.79400
C          4.28900       18.65000        9.44100
H          5.23200       18.87800        9.57900
H          3.83100       18.61900       10.30600
H          3.86900       19.33000        8.87400
B         -7.75100        7.52500       13.64000
F         -8.86500        8.03100       14.24300
F         -7.27600        6.47700       14.23500
F         -8.09500        7.26000       12.31600
F         -7.06300        8.69400       13.66200
F         -8.02900        7.03800       14.95000
F         -6.78700        6.65700       13.13700
F         -8.87500        7.38700       12.90100
