60
C:\Users\Javier\OneDrive - Universitat de Barcelona\Tesi\4 - Contribucions\Treballs\3-PhD\chapter_1\cif\pc2p\NUVPAV.pc2p.pdb
Pd        -0.68900        5.87200        3.83500
I         -2.59500        7.60100        3.14000
I         -2.36000        4.38600        5.24800
P          0.79300        7.07700        2.62500
P          1.05600        4.46800        4.24500
C          2.57800        5.37700        3.78100
C          2.32700        6.08900        2.46800
C          0.31400        7.47400        0.92400
C          0.04000        8.76400        0.52200
C         -0.38900        9.03800       -0.75900
C         -0.55000        8.00800       -1.66900
C         -0.30800        6.71400       -1.28500
C          0.13100        6.44300        0.00200
C          1.30300        8.62600        3.41600
C          0.60800        9.12400        4.50700
C          0.97900       10.32600        5.09900
C          2.09000       10.99700        4.62600
C          2.81200       10.52000        3.55900
C          2.41100        9.32600        2.96400
C          1.04100        3.07000        3.09400
C          0.19000        3.07500        1.98700
C          0.27500        2.04700        1.05000
C          1.15300        1.02300        1.22600
C          1.95700        0.98000        2.32300
C          1.92500        2.00900        3.25200
C          1.41000        3.73500        5.86400
C          0.73800        2.59600        6.27600
C          1.05200        2.00000        7.50200
C          2.00700        2.58600        8.30800
C          2.68500        3.68400        7.90900
C          2.38300        4.28000        6.69600
C         -2.94100        1.03400        9.62500
Cl        -4.18300       -0.17300        9.35800
Cl        -1.43100        0.32600       10.15200
Cl        -2.68300        1.97600        8.18600
H          3.31200        4.76500        3.69100
H          2.79900        6.01800        4.46000
H          3.06600        6.66400        2.25400
H          2.23000        5.44600        1.76200
H          0.14300        9.48100        1.15100
H         -0.57800        9.94200       -1.02300
H         -0.83200        8.19600       -2.56600
H         -0.43500        5.99600       -1.90900
H          0.30900        5.53800        0.26900
H         -0.13600        8.62800        4.85600
H          0.46200       10.68900        5.82200
H          2.36700       11.80800        5.05800
H          3.57400       11.00400        3.23400
H          2.91200        8.97500        2.22400
H         -0.45300        3.78100        1.88400
H         -0.28400        2.06700        0.26900
H          1.21200        0.32600        0.56900
H          2.54100        0.23000        2.45800
H          2.51900        1.99600        4.00600
H          0.05400        2.22100        5.71700
H          0.61400        1.19100        7.77900
H          2.19400        2.20900        9.17100
H          3.36700        4.06000        8.47000
H          2.85100        5.06900        6.41800
H         -3.25000        1.62600       10.31600
