122
C:\Users\Javier\OneDrive - Universitat de Barcelona\Tesi\4 - Contribucions\Treballs\3-PhD\chapter_1\cif\pc2p\ODUBUL.pc2p.pdb
Os         4.09500        8.20900        8.13300
Os         3.32800        5.86000        9.51000
Os         5.94400        7.01400        9.74900
Ru         1.83300        4.36900        1.04300
Fe         7.38100        4.74500        5.86100
C          3.74800        9.61400        9.40900
O          3.52800       10.39200       10.21400
C          5.22700        9.30400        7.09000
O          5.93500        9.93700        6.45400
C          2.64300        8.50700        6.87700
O          1.78700        8.65900        6.15000
C          2.87100        5.75700       11.39700
O          2.60800        5.69000       12.50200
C          2.22600        4.40100        8.85300
O          1.58900        3.56800        8.41500
C          4.88000        4.65900        9.90600
O          5.47700        3.69900       10.14500
C          1.86500        7.13600        9.28700
O          0.86200        7.70400        9.27600
C          5.51600        7.74200       11.50000
O          5.20000        8.22300       12.50900
C          7.39100        5.84200       10.22500
O          8.28300        5.16700       10.48300
C          7.07200        8.47600        9.38100
O          7.74700        9.38500        9.18100
P          3.91800        5.17900        0.69200
C          4.38600        5.48600       -1.04200
C          3.78900        6.55800       -1.71100
C          4.05500        6.80700       -3.05700
C          4.91900        5.97000       -3.76900
C          5.53300        4.90900       -3.13000
C          5.30100        4.69300       -1.77600
C          4.46400        6.71500        1.52600
C          5.75700        7.21400        1.30200
C          6.21200        8.33700        2.00000
C          5.38300        8.97000        2.90700
C          4.07800        8.51100        3.12400
C          3.61500        7.38700        2.42300
C          5.16000        3.95100        1.32700
C          4.73200        2.52500        0.96800
P          2.87000        2.36000        1.05200
C          2.47900        1.35900       -0.44100
C          2.83800        1.89000       -1.67600
C          2.52200        1.21000       -2.86300
C          1.79800        0.02400       -2.81400
C          1.43100       -0.47700       -1.60600
C          1.76500        0.16600       -0.40600
C          2.61500        1.18000        2.41000
C          1.64700        1.41700        3.39300
C          1.45200        0.50200        4.41600
C          2.21800       -0.65000        4.47400
C          3.18800       -0.89400        3.53000
C          3.38300        0.00000        2.47700
C          2.32200        4.54200        2.95700
C          2.65700        4.73300        4.13300
C          3.13500        5.11300        5.35600
C          3.66200        5.55300        6.36900
C          4.23600        6.07800        7.56400
C          5.60700        6.46100        7.74200
C          6.58400        6.47100        6.64100
C          6.35300        6.38200        5.23000
C          7.60700        6.31200        4.58300
C          8.64500        6.33600        5.54900
C          8.00500        6.44000        6.82300
C          6.44000        3.16500        6.72800
C          6.31700        3.07800        5.32800
C          7.63900        3.02300        4.79800
C          8.56300        3.07500        5.86200
C          7.81700        3.16400        7.06000
C         -0.01600        5.65400        1.15300
C          0.61800        5.93100       -0.07600
C          0.64100        4.72800       -0.83600
C          0.01000        3.72400       -0.08200
C         -0.40100        4.28100        1.14400
Cl         2.53000       11.75000        4.57200
Cl         4.44700       13.00100        6.37800
C          4.06800       12.61300        4.73100
Cl         4.88300       12.52100        4.07700
Cl         2.70000       12.18700        5.91800
C          4.21200       12.99100        5.56200
H          3.20000        7.15600       -1.22900
H          3.62100        7.53800       -3.50600
H          5.09900        6.13900       -4.69700
H          6.14000        4.32500       -3.61600
H          5.74000        3.97100       -1.31600
H          6.32900        6.78200        0.66500
H          7.09500        8.68200        1.84500
H          5.71000        9.71300        3.40900
H          3.50300        8.97000        3.73900
H          2.73700        7.07100        2.56100
H          6.00600        4.13800        0.93600
H          5.22300        4.03500        2.27100
H          5.13700        1.91300        1.59000
H          5.04000        2.31000        0.09300
H          3.28800        2.73500       -1.72400
H          2.83700        1.55600       -3.69700
H          1.55500       -0.43100       -3.62600
H          0.91800       -1.28200       -1.58000
H          1.49900       -0.21300        0.43600
H          1.10800        2.20400        3.32200
H          0.78600        0.68200        5.10800
H          2.07000       -1.29800        5.16300
H          3.69900       -1.70800        3.58300
H          4.04600       -0.16800        1.82000
H          5.48400        6.36600        4.79600
H          7.73600        6.26500        3.61600
H          9.59900        6.29500        5.39500
H          8.46200        6.48900        7.67900
H          5.71200        3.21100        7.34400
H          5.50100        3.05900        4.81800
H          7.87000        2.97100        3.84400
H          9.51200        3.05100        5.77100
H          8.18600        3.23000        7.95100
H         -0.14800        6.30200        1.87400
H          0.97800        6.78700       -0.35400
H          1.02900        4.62500       -1.71500
H         -0.12100        2.82700       -0.36300
H         -0.85700        3.81400        1.84900
H          4.03200       13.42000        4.21200
H          4.77500       12.06700        4.36500
H          4.08400       13.97500        5.55700
H          4.86200       12.84300        6.27700
