113
C:\Users\Javier\OneDrive - Universitat de Barcelona\Tesi\4 - Contribucions\Treballs\3-PhD\chapter_1\cif\pc2p\ODUBIZ.pc2p.pdb
Ru         1.93600       10.65700       18.60700
Fe        11.04000       12.88900       12.53900
P          3.69000        9.90300       19.81600
C          3.33000        8.85100       21.27500
C          4.31800        8.04800       21.85600
C          4.03300        7.23000       22.94100
C          2.74300        7.20400       23.45300
C          1.75900        8.01100       22.89600
C          2.05100        8.81800       21.82000
C          4.95100        8.93500       18.92300
C          6.10400        9.49800       18.37600
C          6.95600        8.71700       17.58700
C          6.67500        7.39700       17.34000
C          5.53400        6.82500       17.88600
C          4.68100        7.59700       18.66800
C          4.58500       11.35700       20.49400
C          3.58200       12.33900       21.06700
P          2.06900       12.44000       19.99200
C          0.68400       12.64300       21.17900
C          0.74900       12.47100       22.55300
C         -0.40400       12.58500       23.34300
C         -1.62200       12.87000       22.77400
C         -1.70200       13.07000       21.42800
C         -0.56400       12.95900       20.62300
C          2.10300       14.13900       19.29100
C          2.00400       14.32300       17.92000
C          1.99500       15.59300       17.34700
C          2.04300       16.69300       18.17200
C          2.13300       16.53200       19.54600
C          2.16200       15.26100       20.10800
C          3.39500       11.41400       17.49100
C          4.32600       11.76200       16.79800
C          5.47700       12.10000       16.13300
C          6.53700       12.35900       15.59500
C          7.74800       12.73500       15.06600
C          8.82700       13.11600       14.65800
C          1.11000        8.89200       17.49100
C          0.49700        8.93000       18.75100
C         -0.21900       10.14100       18.84700
C         -0.06300       10.84600       17.61800
C          0.75500       10.06000       16.79400
C         10.04800       13.61900       14.15300
C         11.37800       13.18300       14.51400
C         12.30200       13.93800       13.74400
C         11.57000       14.83000       12.90700
C         10.19300       14.64400       13.16100
C          9.90200       11.37700       11.76200
C         11.15200       10.89000       12.23200
C         12.18500       11.55500       11.50700
C         11.56800       12.46300       10.61800
C         10.16400       12.35900       10.77600
C          3.69500        8.33500       15.02200
C          3.75200        9.00700       13.82800
C          3.30600        6.99200       15.05100
C          8.71700        8.94400       14.24500
C          9.66000        7.94700       14.18400
C          7.40300        8.68200       13.89500
H          5.21900        8.06300       21.48900
H          4.72600        6.68400       23.34200
H          2.52000        6.62300       24.19400
H          0.87800        8.01100       23.27200
H          1.36300        9.35800       21.42400
H          6.31600       10.41800       18.54300
H          7.75500        9.11000       17.21000
H          7.27200        6.87200       16.79500
H          5.34200        5.89500       17.72300
H          3.88100        7.20100       19.04100
H          5.20200       11.06500       21.17100
H          5.08800       11.78100       19.79900
H          3.97400       13.20300       21.16500
H          3.31800       12.04200       21.95800
H          1.59000       12.27200       22.96300
H         -0.33500       12.46500       24.30600
H         -2.40700       12.93400       23.32200
H         -2.56900       13.27000       21.01300
H         -0.64700       13.09800       19.65500
H          1.94400       13.54400       17.35600
H          1.93300       15.70700       16.37600
H          2.01900       17.58900       17.81300
H          2.18400       17.32100       20.11100
H          2.21900       15.13100       21.07100
H          1.65800        8.18800       17.14100
H          0.55700        8.25800       19.43700
H         -0.71700       10.43900       19.62400
H         -0.45100       11.69700       17.38200
H          1.05100       10.28500       15.91500
H         11.58300       12.50800       15.16300
H         13.26900       13.85100       13.77100
H         11.95300       15.44900       12.27700
H          9.46300       15.11500       12.73700
H          9.03600       11.09800       12.06600
H         11.28000       10.21800       12.91400
H         13.13600       11.41200       11.62000
H         12.01500       13.04500        9.99200
H          9.50100       12.86900       10.29900
H          3.94000        8.78300       15.84000
H          4.05200        9.93100       13.80600
H          3.26800        6.52300       15.90000
H          8.98100        9.83600       14.53900
H         10.58300        8.12900       14.43300
H          6.73400        9.37900       13.93800
C          3.04400        7.01200       12.66700
C          2.98700        6.34000       13.86100
C          3.43300        8.35500       12.63800
C          7.98600        6.40300       13.44400
C          7.04300        7.40000       13.50400
C          9.30000        6.66500       13.79300
H          2.79900        6.56400       11.84900
H          2.68800        5.41600       13.88300
H          3.47100        8.82400       11.78900
H          7.72200        5.51100       13.15000
H          6.12000        7.21800       13.25500
H          9.96900        5.96800       13.75100
