277
C:\Users\Javier\OneDrive - Universitat de Barcelona\Tesi\4 - Contribucions\Treballs\3-PhD\chapter_1\cif\pc2p\OLOSAL.pc2p.pdb
Au         4.08800        6.06000       26.52800
Au         3.36400        5.98100       29.30300
Ru         1.33700       12.81700       28.20800
P         -0.54900       12.91300       26.73300
P          2.46500       13.47000       26.26100
C          4.72100        4.91800       24.92000
N          5.99700        4.50900       24.60300
C          5.98900        3.85000       23.35700
H          6.73600        3.46400       22.91600
C          4.70000        3.87200       22.90000
H          4.39300        3.51400       22.07500
N          3.90600        4.52900       23.87400
C          3.30100        4.88700       31.06400
N          2.57000        3.79800       31.43800
C          2.92300        3.45000       32.78300
H          2.58200        2.72200       33.28700
C          3.82600        4.34900       33.19200
H          4.23800        4.36600       34.04900
N          4.06700        5.26500       32.14900
C          7.23900        4.90600       25.33000
C          8.98100        4.41000       26.96600
H          9.35400        3.87500       27.65800
C          9.61800        5.53800       26.61400
H         10.42300        5.77200       27.06100
C          9.12300        6.38200       25.59600
H          9.62000        7.15700       25.34900
C          7.88900        6.09800       24.93000
C          7.25600        7.01600       23.85800
H          6.49700        6.52500       23.43000
C          2.46100        4.84600       23.73100
C          2.11900        6.06800       23.05900
C          0.72500        6.40100       22.96700
H          0.45400        7.20400       22.53500
C         -0.23600        5.54100       23.52200
H         -1.15400        5.77800       23.48700
C          0.14200        4.34100       24.12100
H         -0.53900        3.76500       24.44800
C          1.48400        3.94100       24.26400
C          3.18000        7.02700       22.45900
H          4.08300        6.62500       22.61100
C          1.89200        2.61500       24.93300
H          2.79800        2.74100       25.33900
C          4.90000        6.47600       32.26900
C          4.22100        7.71400       32.55500
C          5.02900        8.90600       32.71000
H          4.62800        9.74700       32.89100
C          6.45700        8.78100       32.57700
H          6.99400        9.55900       32.67200
C          7.08200        7.56200       32.32000
H          8.02900        7.53500       32.26000
C          6.34300        6.36000       32.13900
C          2.69000        7.82700       32.75100
H          2.27500        6.99200       32.39300
C          7.02300        5.01700       31.83200
H          6.33400        4.35800       31.53700
C          1.44700        3.10800       30.66100
C          1.76900        1.86400       30.01400
C          0.61800        1.19700       29.34500
H          0.73500        0.35600       28.91400
C         -0.59200        1.79500       29.35400
H         -1.29200        1.35400       28.88800
C         -0.92500        3.02300       29.99800
H         -1.80100        3.38400       29.97300
C          0.15400        3.67600       30.68300
C          3.20500        1.31300       30.01700
H          3.79500        1.83700       30.63300
C         -0.17500        4.95100       31.46000
H          0.63200        5.54100       31.44500
C          3.53500        7.66400       27.88900
C          2.38400        8.47300       27.67300
C          2.74200        9.94000       27.91400
C          4.23100        9.93200       28.34000
C          5.08300       10.97700       28.76500
H          4.77800       11.87600       28.78000
C          6.42000       10.64600       29.17400
H          7.01000       11.33000       29.47200
C          6.85700        9.30300       29.13200
H          7.74900        9.10400       29.39600
C          6.01600        8.24100       28.71400
H          6.32500        7.34500       28.70700
C          4.67000        8.56900       28.30100
C          1.99400       11.09000       27.87300
C          0.91700        8.03700       27.36300
C          0.77400        6.49200       27.04500
H          1.12500        5.97100       27.80000
H         -0.17100        6.27400       26.90900
H          1.28000        6.27700       26.23700
C          0.06700        8.31500       28.63800
H          0.43800        7.81300       29.39300
H          0.08500        9.27200       28.84100
H         -0.85900        8.03100       28.48200
C          0.35000        8.82300       26.14100
H          0.89500        8.63800       25.34900
H         -0.57500        8.54200       25.97300
H          0.37000        9.78300       26.33500
C          0.88300       12.51300       30.44600
H          0.57400       11.68800       30.80400
C          0.05800       13.55800       29.97300
H         -0.89200       13.54500       29.94100
C          0.91600       14.67300       29.53800
H          0.62900       15.51100       29.19600
C          2.29200       14.23700       29.73500
H          3.06600       14.74700       29.53200
C          2.28600       12.89900       30.30000
H          3.04500       12.37500       30.52800
C          0.05600       12.93800       24.97100
H         -0.47200       12.29800       24.42900
H         -0.07600       13.84200       24.59100
C         -1.58200       14.46300       26.98800
C         -1.15300       15.75400       26.56300
H         -0.34300       15.82500       26.07200
C         -1.88300       16.93100       26.84200
H         -1.56100       17.77500       26.54400
C         -3.07700       16.85100       27.56200
H         -3.57700       17.63500       27.75300
C         -3.53400       15.58000       28.00000
H         -4.34300       15.51400       28.49200
C         -2.78700       14.39400       27.71100
H         -3.10800       13.55000       28.01000
C         -1.84100       11.58400       26.82300
C         -2.13700       10.98200       28.05700
H         -1.61700       11.19500       28.82200
C         -3.21100       10.05600       28.16800
H         -3.40800        9.65000       29.00200
C         -3.97800        9.74700       27.03600
H         -4.68800        9.12100       27.10600
C         -3.70900       10.35100       25.80800
H         -4.23700       10.13600       25.04700
C         -2.65900       11.26900       25.69700
H         -2.48800       11.68800       24.86300
C          1.58000       12.55400       24.89500
H          1.95400       12.81100       24.01300
H          1.69200       11.57800       25.00900
C          2.33500       15.26800       25.73900
C          2.38900       16.32200       26.66800
H          2.48800       16.12600       27.59400
C          2.29700       17.68200       26.24600
H          2.32400       18.38200       26.89000
C          2.16600       17.98200       24.90800
H          2.10800       18.88700       24.62200
C          2.12500       16.97800       23.99400
H          2.02700       17.20200       23.07800
C          2.22000       15.60200       24.35300
H          2.20700       14.92400       23.69000
C          4.30100       13.14700       26.08800
C          4.79600       12.01900       25.42500
H          4.21900       11.36800       25.04400
C          6.23100       11.89800       25.35200
H          6.59600       11.15300       24.88900
C          7.10500       12.80500       25.92600
H          8.04400       12.68400       25.85300
C          6.57800       13.90900       26.62000
H          7.16000       14.52600       27.04500
C          5.16800       14.09100       26.68400
H          4.80900       14.84900       27.12800
C          7.73500        3.96300       26.33500
C          7.14200        2.52100       26.53500
H          6.15800        2.64500       26.40500
C          7.50200        1.39300       25.55200
H          7.44600        1.72900       24.63200
H          8.42300        1.09200       25.72600
H          6.88800        0.64500       25.66600
C          7.26200        1.92800       27.97200
H          7.03100        2.61700       28.63100
H          6.64000        1.17200       28.06400
H          8.17600        1.61900       28.12400
C          8.26500        7.41100       22.76400
H          7.82400        7.99300       22.10700
H          9.01700        7.89100       23.17000
H          8.59500        6.60500       22.31600
C          6.69800        8.30400       24.51400
H          6.05400        8.06200       25.21500
H          7.43500        8.81500       24.91100
H          6.25100        8.85000       23.83600
C          2.97200        7.17900       20.92700
H          3.64900        7.78900       20.56600
H          3.05700        6.30500       20.49600
H          2.07900        7.54300       20.75300
C          3.14600        8.42000       23.16000
H          3.82600        9.00200       22.76000
H          2.26100        8.82300       23.04300
H          3.33300        8.30700       24.11500
C          1.97800        1.42300       23.96300
H          2.58300        1.64400       23.22300
H          2.31900        0.63700       24.43800
H          1.08600        1.22500       23.60700
C          0.94300        2.19300       26.04600
H          0.84800        2.92100       26.69300
H          0.05900        1.98600       25.66300
H          1.29100        1.39600       26.49700
C          2.35500        7.90700       34.25800
H          2.75100        7.14000       34.72400
H          2.71900        8.73700       34.62900
H          1.38300        7.89600       34.37800
C          2.08100        9.01900       31.98700
H          2.30700        8.94700       31.03500
H          1.10800        9.01300       32.09200
H          2.44400        9.85700       32.34500
C          7.77700        4.45400       33.06500
H          8.19700        3.59900       32.83100
H          8.46800        5.09100       33.34800
H          7.14400        4.31400       33.80100
C          8.07700        5.19600       30.70900
H          8.50400        4.33600       30.52200
H          7.63700        5.52700       29.89700
H          8.75700        5.84100       30.99700
C          3.18700       -0.19300       30.39200
H          4.10200       -0.54100       30.39200
H          2.79300       -0.30300       31.28300
H          2.65000       -0.68700       29.73500
C          3.75300        1.32900       28.55200
H          4.67500        0.97900       28.54600
H          3.19200        0.76900       27.98100
H          3.75900        2.24800       28.20900
C         -0.48700        4.62000       32.92900
H         -0.69600        5.44400       33.41400
H         -1.25600        4.01300       32.97000
H          0.29100        4.18900       33.33800
C         -1.36000        5.73900       30.83600
H         -1.53300        6.54500       31.36900
H         -1.13400        5.99900       29.91900
H         -2.16100        5.17700       30.82900
C          6.87500        2.93500       27.03000
H          6.02600        2.76900       26.52200
C          7.76500        1.66300       27.04900
H          7.29100        0.92900       27.48600
H          7.99100        1.40400       26.12900
H          8.59600        1.85300       27.54000
C          6.57000        3.42000       28.47300
H          6.01100        2.75800       28.92900
H          7.41200        3.53000       28.96100
H          6.09900        4.27800       28.43500
N         -2.45600       10.58000       33.79800
S         -2.86600       10.73300       32.25600
O         -3.86200        9.81800       31.74600
O         -1.68600       10.92400       31.48600
C         -3.70400       12.36100       32.15500
F         -4.82600       12.45800       32.84300
F         -3.98500       12.69800       30.89000
F         -2.91900       13.37400       32.63100
S         -3.35600        9.84700       34.87600
O         -4.77700        9.81600       34.65100
O         -2.89000       10.26300       36.16100
C         -2.83800        8.07000       34.78800
F         -3.43100        7.35300       35.77100
F         -3.21000        7.48000       33.65200
F         -1.54100        7.87100       34.95300
N         -0.05000       11.69100       21.85000
S          0.68100       12.53900       20.72800
O          0.14400       12.35000       19.40200
O          0.90200       13.89800       21.15600
C          2.39000       11.84600       20.64800
F          3.12900       12.54300       19.76000
F          3.02300       11.88100       21.82500
F          2.40900       10.56300       20.27400
S         -0.81300       10.29800       21.66000
O         -0.97200        9.65900       22.95100
O         -0.39600        9.44100       20.58500
C         -2.52500       10.81400       21.20600
F         -3.33500        9.73300       21.05100
F         -2.57900       11.49000       20.04200
F         -3.08400       11.57000       22.17000
N         -0.71400       11.11200       20.23900
S          0.70900       11.00400       20.95600
O          0.64500       10.79500       22.37300
O          1.57600       10.15500       20.17500
C          1.41400       12.69800       20.79400
F          2.65500       12.77800       21.32400
F          1.51100       13.09500       19.51900
F          0.66500       13.59700       21.46300
S         -2.09300       11.32200       20.99400
O         -3.12800       11.81300       20.11500
O         -2.01200       12.02200       22.24300
C         -2.65200        9.61400       21.41600
F         -3.83300        9.70300       22.04400
F         -1.81800        8.96400       22.23400
F         -2.82200        8.83700       20.33400
