180
C:\Users\Javier\OneDrive - Universitat de Barcelona\Tesi\4 - Contribucions\Treballs\3-PhD\chapter_1\cif\pc2p\ORUXUW.pc2p.pdb
Ru         9.61300       18.81700        7.30900
P          8.32700       20.46700        6.13800
P         10.81000       18.71300        5.25200
N          8.71900       16.97800        6.53100
O         11.30500       20.76600        8.84800
C         10.60800       20.10600        8.21400
C          8.65100       22.26100        6.62700
C         10.12400       22.59100        6.23800
H         10.41200       23.40100        6.70900
H         10.18200       22.73700        5.27200
H         10.70300       21.84300        6.49200
C          7.80800       23.26600        5.87200
H          8.15300       24.16900        6.03000
H          6.87900       23.21100        6.18300
H          7.84300       23.06500        4.91200
C          8.46200       22.51800        8.12100
H          7.51400       22.42200        8.35200
H          8.76000       23.42700        8.33700
H          8.99000       21.87100        8.63300
C          6.43700       20.23200        6.06100
C          5.79100       20.90800        4.83800
H          5.90000       21.88100        4.90800
H          4.83700       20.68900        4.81100
H          6.22600       20.58800        4.02000
C          5.77300       20.74500        7.33700
H          4.87300       20.36700        7.41200
H          5.71400       21.72300        7.30400
H          6.30700       20.47700        8.11300
C          6.19600       18.71600        5.97800
H          5.23300       18.53900        5.93100
H          6.56900       18.28300        6.77400
H          6.63200       18.35900        5.17700
C          8.79400       20.38300        4.34300
H          8.25500       19.67900        3.90400
H          8.57100       21.24500        3.91300
C         10.28300       20.08500        4.11900
H         10.82000       20.89700        4.30300
H         10.43500       19.82100        3.17700
C         12.68400       18.77000        5.08900
C         13.27200       17.38300        5.44100
H         13.08400       17.17700        6.38000
H         14.24300       17.39400        5.29800
H         12.86600       16.70100        4.86700
C         13.11700       19.10500        3.66100
H         14.09600       19.08800        3.60400
H         12.79200       19.99900        3.42200
H         12.74200       18.44600        3.04200
C         13.22100       19.83100        6.05200
H         12.77500       20.68500        5.87900
H         14.18700       19.93400        5.92000
H         13.04600       19.55100        6.97500
C         10.17800       17.22200        4.59100
C         10.50300       16.47000        3.30600
H         11.45500       16.57500        3.05800
H          9.93400       16.77600        2.55600
C         10.18500       15.02400        3.69000
H         10.98600       14.57600        4.06100
H          9.87100       14.51400        2.90100
C          9.07700       15.11600        4.75100
H          8.18100       15.04300        4.33600
H          9.17600       14.40300        5.43100
C          9.28500       16.49500        5.36700
C          8.23100       16.11300        7.54700
C          7.17700       15.16800        7.43200
C          6.87400       14.38300        8.55900
H          6.22000       13.69700        8.47300
C          7.48100       14.56100        9.77700
H          7.25700       14.00600       10.51500
C          8.43400       15.57100        9.91400
H          8.82900       15.73200       10.76200
C          8.80600       16.33900        8.82100
C          6.27000       15.01300        6.21700
H          6.60500       15.62200        5.49800
C          6.25200       13.58500        5.66100
H          5.84500       12.98300        6.32000
H          7.17000       13.29400        5.47600
H          5.72900       13.56200        4.83200
C          4.83200       15.43000        6.57200
H          4.83100       16.35400        6.89600
H          4.48300       14.83800        7.27200
H          4.26500       15.36300        5.77600
C          9.88900       17.36600        8.95200
C         11.00000       17.32900        8.06700
H         11.10100       16.50600        7.52400
H         11.85800       17.67000        8.42300
C         10.09100       17.95300       10.33600
H         10.78800       18.64100       10.30100
H         10.36500       17.24300       10.95400
H          9.25200       18.35200       10.64700
H          8.39100       18.92700        8.36900
Ru         3.22100       18.39200       14.39400
P          3.80600       18.32500       12.07000
P          2.11900       20.41200       13.77400
N          1.19000       17.61400       14.31700
O          5.82400       19.52300       15.35900
C          4.86300       19.09400       14.89300
C          5.64200       18.60700       11.70000
C          5.97200       20.07400       11.99200
H          6.94100       20.20900       11.93400
H          5.66500       20.30500       12.89500
H          5.52100       20.64800       11.33900
C          6.52700       17.66600       12.54200
H          6.31500       17.78000       13.49200
H          7.47100       17.88200       12.39000
H          6.35700       16.73700       12.28000
C          6.01000       18.38600       10.20500
H          5.87300       17.44300        9.97200
H          6.94800       18.62600       10.06100
H          5.43900       18.94800        9.64200
C          3.23200       16.85700       11.04000
C          1.83300       16.49700       11.55700
H          1.90500       16.12400       12.46000
H          1.42600       15.83300       10.96000
H          1.27600       17.30300       11.57700
C          3.13800       17.13800        9.52200
H          2.62400       17.95800        9.37400
H          2.69000       16.38800        9.07800
H          4.03900       17.24400        9.15400
C          4.12400       15.62000       11.27200
H          3.69600       14.83100       10.87700
H          4.24600       15.47900       12.23400
H          4.99600       15.76200       10.84800
C          2.92800       19.71300       11.20800
H          3.46200       19.99000       10.42300
H          2.05600       19.38300       10.87700
C          2.68700       20.92900       12.09600
H          2.00300       21.51200       11.67900
H          3.52600       21.45000       12.17600
C          2.18600       22.04600       14.71700
C          1.33500       21.95900       15.97600
H          0.43600       21.64800       15.74200
H          1.27700       22.84400       16.39100
H          1.74600       21.33000       16.60500
C          1.69800       23.21100       13.87100
H          1.77300       24.04100       14.38500
H          0.76100       23.06500       13.62400
H          2.24300       23.27700       13.05900
C          3.66100       22.30600       15.11600
H          3.94600       21.63300       15.76900
H          3.74000       23.20000       15.51200
H          4.23100       22.25000       14.32000
C          0.45700       19.84200       13.70000
C         -0.85100       20.57300       13.46700
H         -1.12200       20.53900       12.51500
H         -0.79300       21.51900       13.75500
C         -1.81400       19.78200       14.34700
H         -1.80600       20.12500       15.27600
H         -2.73700       19.83100       13.99500
C         -1.28800       18.35800       14.29400
H         -1.68400       17.86100       13.53400
H         -1.48600       17.87200       15.13500
C          0.22200       18.54500       14.10600
C          0.96900       16.47600       15.14400
C          0.03000       15.43200       14.95700
C         -0.05700       14.42400       15.92100
H         -0.70500       13.73800       15.81200
C          0.77600       14.39800       17.03300
H          0.65000       13.74800       17.71400
C          1.78400       15.32400       17.13300
H          2.41200       15.26000       17.84400
C          1.89300       16.34500       16.21200
C         -0.80300       15.24700       13.68100
H         -0.65600       16.03800       13.08800
C         -2.31200       15.12500       13.96700
H         -2.63100       15.94800       14.39500
H         -2.47100       14.36400       14.56300
H         -2.79400       14.98800       13.12500
C         -0.34100       13.99300       12.94100
H         -0.56700       13.20000       13.46800
H          0.63000       14.03200       12.80900
H         -0.78800       13.94600       12.06900
C          2.99700       17.38300       16.33400
C          2.54700       18.79400       16.40400
H          3.10600       19.41100       16.94100
H          1.57500       18.94200       16.52100
C          4.22000       17.05300       17.13300
H          3.96300       16.86200       18.05900
H          4.83700       17.81400       17.11400
H          4.66100       16.26800       16.74600
H          3.72600       16.75300       14.68700
