94
C:\Users\Javier\OneDrive - Universitat de Barcelona\Tesi\4 - Contribucions\Treballs\3-PhD\chapter_1\cif\pc2p\ORUYEH01.pc2p.pdb
Ru         4.24200        8.70700        8.12800
P          5.65900       10.55500        7.23600
P          2.55200        9.98100        7.04700
N          3.97800        7.41700        6.37900
O          6.53900        7.02500        9.23000
O          3.80400        9.64300       10.93600
C          5.68000        7.61500        8.79200
C          4.01500        9.38400        9.82600
C          6.95000       10.23800        5.89600
C          6.21300        9.44400        4.79500
H          6.87000        9.05300        4.18000
H          5.62000       10.04600        4.29900
H          5.68500        8.72800        5.20800
C          8.09700        9.40000        6.47700
H          8.66600        9.07500        5.74800
H          7.72800        8.63600        6.96700
H          8.62900        9.95200        7.08600
C          7.51900       11.48900        5.20700
H          8.14500       11.93800        5.81300
H          6.78700       12.09900        4.98200
H          7.98900       11.22500        4.38800
C          6.42900       11.56900        8.64100
C          7.10400       10.64000        9.65900
H          7.82300       10.14000        9.21900
H          6.44300       10.01200       10.01700
H          7.47900       11.17300       10.39000
C          7.47000       12.60200        8.18300
H          7.71600       13.17500        8.93900
H          7.09200       13.15200        7.46600
H          8.26800       12.13700        7.85200
C          5.30800       12.35200        9.33800
H          4.55300       11.75200        9.51800
H          5.01200       13.08500        8.75900
H          5.64200       12.71800       10.18400
C          4.58100       11.77000        6.35000
H          4.92600       12.68200        6.51400
H          4.63700       11.59700        5.37700
C          3.11500       11.71300        6.77400
H          2.55500       12.13300        6.07400
H          2.99700       12.23100        7.61100
C          0.82500       10.28700        7.73100
C          0.94200       10.71700        9.19900
H          1.52500       11.50100        9.26400
H          1.32500        9.98300        9.72400
H          0.05400       10.94000        9.54600
C          0.08400       11.38500        6.95300
H         -0.84400       11.43300        7.26000
H          0.10200       11.17500        5.99600
H          0.52400       12.24700        7.10600
C          0.02400        8.98700        7.65700
H          0.45000        8.30900        8.22300
H         -0.00000        8.67000        6.72900
H         -0.89000        9.14900        7.97100
C          2.47500        9.11700        5.51600
C          1.70100        9.38100        4.23800
H          2.20500        9.97600        3.62700
H          0.81700        9.78300        4.42900
C          1.55900        7.95600        3.65000
H          0.72600        7.52600        3.97000
H          1.54500        7.98400        2.66100
C          2.78400        7.20200        4.15300
H          2.57800        6.24500        4.29700
H          3.53500        7.27600        3.51200
C          3.11600        7.89400        5.46600
C          4.08900        5.97600        6.47500
C          5.31500        5.32600        6.19400
C          5.39600        3.93500        6.29100
H          6.22000        3.50300        6.09700
C          4.30200        3.17500        6.66600
H          4.37100        2.23000        6.72200
C          3.11000        3.80500        6.95800
H          2.36200        3.28300        7.22300
C          2.97500        5.19500        6.87300
C          6.53600        6.09500        5.73100
H          6.43600        7.03800        6.04800
C          6.61500        6.12700        4.20500
H          6.73500        5.21600        3.86500
H          7.37400        6.68200        3.92800
H          5.78500        6.50400        3.84200
C          7.84700        5.55200        6.30600
H          7.77600        5.49600        7.28200
H          8.58200        6.15300        6.06700
H          8.02100        4.66000        5.93900
C          1.62700        5.80000        7.24200
H          1.69800        6.79300        7.14500
C          1.26600        5.49500        8.69400
H          1.11100        4.53200        8.79800
H          0.45200        5.98400        8.93900
H          2.00100        5.77200        9.27900
C          0.50400        5.32000        6.32300
H          0.73900        5.51200        5.39200
H         -0.32700        5.78500        6.55300
H          0.38100        4.35500        6.43600
H          3.03900        7.93900        9.08200
