94
C:\Users\Javier\OneDrive - Universitat de Barcelona\Tesi\4 - Contribucions\Treballs\3-PhD\chapter_1\cif\pc2p\ORUYEH.pc2p.pdb
Ru         0.69300       11.75400        6.71200
P          0.23200       11.80600        4.27700
P          2.92100       11.68300        5.89500
N          1.25900       13.88300        7.15500
O         -2.22600       11.71600        7.58200
O          1.22300       10.60000        9.45500
C         -1.14600       11.80300        7.22500
C          1.07900       11.11600        8.43700
C         -0.55500       13.33400        3.48700
C         -0.48600       13.41400        1.94400
H          0.43100       13.23500        1.64800
H         -0.75500       14.30900        1.65100
H         -1.09100       12.74900        1.55500
C         -2.01600       13.46500        3.94800
H         -2.55400       12.75900        3.53400
H         -2.36500       14.34000        3.68100
H         -2.05900       13.37900        4.92300
C          0.26400       14.52400        4.01900
H          0.32300       14.46700        4.99500
H         -0.17500       15.36300        3.76500
H          1.16600       14.49800        3.63400
C         -0.68600       10.24500        3.70600
C         -1.90600        9.98600        4.60000
H         -1.60800        9.81100        5.51700
H         -2.39900        9.20900        4.26300
H         -2.48900       10.77200        4.59100
C         -1.17600       10.31500        2.24400
H         -1.89100       10.98200        2.17000
H         -1.51800        9.43600        1.97200
H         -0.43000       10.56900        1.66100
C          0.25800        9.03900        3.81600
H          0.96400        9.11600        3.14100
H         -0.24800        8.21300        3.66500
H          0.65900        9.01900        4.70900
C          1.83700       11.72500        3.35400
H          1.70200       11.21000        2.52000
H          2.10800       12.64200        3.09900
C          2.96100       11.08200        4.15600
H          3.83300       11.30900        3.74600
H          2.86000       10.09700        4.14200
C          4.28500       10.67100        6.70500
C          3.77700        9.23500        6.91200
H          2.98300        9.25000        7.48600
H          4.47900        8.69900        7.33800
H          3.54600        8.84000        6.04500
C          5.54700       10.63800        5.83500
H          5.34900       10.18300        4.99000
H          6.25600       10.15600        6.30800
H          5.84100       11.55400        5.65400
C          4.63400       11.29700        8.05800
H          4.96900       12.20800        7.92000
H          5.32500       10.75800        8.49800
H          3.83400       11.32700        8.62200
C          3.27500       13.41300        5.86800
C          4.35200       14.20200        5.14600
H          4.13300       14.31200        4.18600
H          5.23600       13.76500        5.23000
C          4.32100       15.55400        5.88600
H          4.96800       15.55900        6.63400
H          4.54000       16.29600        5.26800
C          2.88500       15.69000        6.40900
H          2.86600       16.16200        7.27900
H          2.31500       16.17900        5.76300
C          2.42500       14.24300        6.56200
C          0.83200       14.63200        8.30400
C          1.67500       14.81100        9.43600
C          1.21100       15.53600       10.53800
H          1.79000       15.66900       11.28000
C         -0.06700       16.06300       10.57900
H         -0.37000       16.54100       11.34300
C         -0.89600       15.88000        9.48300
H         -1.77700       16.23400        9.50700
C         -0.47300       15.19500        8.35200
C          3.07400       14.20900        9.54400
H          3.26800       13.72700        8.69100
C          3.15300       13.19300       10.69300
H          3.08100       13.66200       11.55100
H          4.01000       12.71800       10.65100
H          2.41900       12.54900       10.61000
C          4.16000       15.28400        9.73800
H          4.07800       15.96200        9.03600
H          5.04500       14.86700        9.68700
H          4.04700       15.70700       10.61600
C         -1.39000       15.16000        7.14100
H         -1.08100       14.42600        6.53700
C         -1.26000       16.49100        6.38200
H         -1.55600       17.22600        6.95900
H         -1.81800       16.46100        5.57700
H         -0.32500       16.63000        6.12600
C         -2.86500       14.90700        7.48900
H         -2.93500       14.11600        8.06300
H         -3.37400       14.76000        6.66500
H         -3.22700       15.68700        7.96200
H          0.58900       10.29000        6.36800
