88
C:\Users\Javier\OneDrive - Universitat de Barcelona\Tesi\4 - Contribucions\Treballs\3-PhD\chapter_1\cif\pc2p\OVOLAN.pc2p.pdb
Ru         5.09800        3.38700        6.15000
Cl         6.41800        2.54600        8.10300
P          4.10200        4.40500        4.38800
P          3.49400        4.50100        7.44100
O          3.36000        0.92900        6.56900
N          7.64600        3.54400        4.66700
N          6.88900        1.59700        4.16800
C          4.01900        1.83400        6.33800
C          6.62800        2.69300        4.91800
C          8.53900        3.00700        3.74500
C          8.09300        1.78100        3.43400
C          7.73700        4.84700        5.34600
C          6.45700        5.09200        6.15600
C          8.98600        4.86400        6.20500
H          8.90600        4.19000        6.91100
H          9.09100        5.75100        6.61100
H          9.76800        4.66400        5.64900
C          9.71100        3.76400        3.18300
H         10.49400        3.62700        3.75500
H          9.49700        4.72000        3.14800
H          9.90500        3.44000        2.27800
C          8.74700        0.76800        2.56100
H          8.16000        0.56300        1.80400
H          8.91300       -0.04700        3.07800
H          9.59700        1.12300        2.23000
C          6.02900        0.39900        4.14700
H          5.20600        0.63700        4.66400
C          5.56700        0.05900        2.75400
H          5.19500        0.85900        2.32900
H          4.88000       -0.63700        2.79800
H          6.32800       -0.26700        2.22800
C          6.65000       -0.76900        4.85800
H          7.43000       -1.07900        4.35400
H          5.99500       -1.49300        4.92800
H          6.93000       -0.49500        5.75600
C          2.98000        5.71300        5.04800
H          3.50800        6.51000        5.30800
H          2.33200        5.98200        4.35100
C          2.23800        5.16900        6.25900
H          1.61400        4.45000        5.98300
H          1.71400        5.89000        6.69000
C          5.18500        5.33900        3.22300
C          5.96700        4.59800        2.34800
H          5.88900        3.65000        2.32800
C          6.86100        5.23300        1.50300
H          7.39000        4.72300        0.90300
C          6.98300        6.60500        1.53200
H          7.61700        7.04000        0.97100
C          6.18700        7.34400        2.37300
H          6.24600        8.29300        2.36600
C          5.30100        6.71700        3.23000
H          4.77100        7.23600        3.82400
C          3.06400        3.52300        3.13200
C          2.67500        4.19700        1.97100
H          2.91300        5.11100        1.85800
C          1.95500        3.55900        0.98900
H          1.67900        4.03900        0.21700
C          1.63200        2.22400        1.12300
H          1.15900        1.77500        0.43200
C          1.99900        1.54700        2.26200
H          1.76500        0.63100        2.36300
C          2.70900        2.19700        3.27300
H          2.95300        1.72400        4.05900
C          2.44200        3.61200        8.64300
C          1.08700        3.86600        8.77800
H          0.67400        4.50400        8.20900
C          0.31800        3.20400        9.73100
H         -0.61300        3.38100        9.79200
C          0.88400        2.31900       10.56100
H          0.35700        1.88200       11.22000
C          2.23700        2.03900       10.46400
H          2.63500        1.41300       11.05700
C          3.02200        2.67900        9.49100
H          3.94700        2.47400        9.41300
C          4.03500        5.91700        8.47100
C          5.13700        5.70800        9.30000
H          5.57000        4.86200        9.29900
C          5.60300        6.71000       10.12200
H          6.34700        6.55100       10.69100
C          4.98000        7.96000       10.11600
H          5.30500        8.65800       10.67000
C          3.90000        8.16800        9.30900
H          3.47700        9.01900        9.30400
C          3.41500        7.15900        8.50000
H          2.64900        7.31600        7.95800
H          6.66300        5.17600        7.02800
H          6.09900        5.91100        6.07000
H          7.82400        5.44000        4.67800
