125
C:\Users\Javier\OneDrive - Universitat de Barcelona\Tesi\4 - Contribucions\Treballs\3-PhD\chapter_1\cif\pc2p\OYUQIJ.pc2p.pdb
Ru        10.68000        4.61400        9.42500
P          8.69400        3.78800       10.32800
C          7.89100        2.36000        9.53600
C          6.71500        1.83100       10.07900
H          6.35600        2.18800       10.88300
C          6.07400        0.77700        9.42900
H          5.27000        0.42100        9.79000
C          6.59400        0.25100        8.28100
H          6.15400       -0.47700        7.85800
C          7.73900        0.76000        7.73200
H          8.08700        0.40000        6.92400
C          8.39300        1.81500        8.36900
H          9.19500        2.16300        7.99700
C          8.65200        3.33000       12.08900
C          9.21500        2.11300       12.45900
H          9.61100        1.55500       11.80000
C          9.20300        1.71000       13.79600
H          9.59600        0.88100       14.04300
C          8.62600        2.50500       14.75500
H          8.62200        2.23200       15.66500
C          8.05400        3.69500       14.38900
H          7.64100        4.23900       15.05000
C          8.06800        4.12100       13.05800
H          7.67900        4.95400       12.82000
C          7.49500        5.15400       10.14600
H          6.59000        4.83800       10.39800
H          7.74200        5.89800       10.74900
C          7.48500        5.64200        8.70100
H          7.07400        6.54300        8.66400
H          6.92900        5.03300        8.15300
P          9.19100        5.71900        7.98600
C          8.93900        5.13500        6.26400
C          8.14700        4.03500        5.99100
H          7.68500        3.61200        6.70500
C          8.00900        3.53300        4.71100
H          7.46400        2.77200        4.54600
C          8.68300        4.16000        3.66200
H          8.61100        3.81800        2.77900
C          9.45100        5.27300        3.90700
H          9.88700        5.71500        3.18900
C          9.59600        5.74900        5.18300
H         10.14800        6.50500        5.34100
C          9.55100        7.49200        7.73700
C         10.72200        8.07900        8.22600
H         11.37700        7.54300        8.66000
C         10.93000        9.43300        8.08100
H         11.72700        9.82600        8.42000
C          9.98500       10.22500        7.44400
H         10.12500       11.16200        7.36200
C          8.83200        9.64200        6.92500
H          8.18900       10.18100        6.48100
C          8.62200        8.28700        7.05500
H          7.84400        7.89100        6.68100
C         10.60000        5.84100       10.76800
C         10.73500        6.70700       11.79400
C         10.95300        6.37200       13.29700
C         11.31900        4.99300       13.62100
N         11.65300        3.94900       13.97000
C          9.69100        6.73100       14.05700
N          8.75200        7.10800       14.59500
C         12.08100        7.36500       13.64800
C         12.82100        7.18900       14.83600
N         13.38800        6.98000       15.81300
C         12.14000        8.38400       12.72600
C         11.01600        8.15000       11.77500
C         13.05000        9.46300       12.62100
C         14.00700        9.74400       13.64600
N         14.78600        9.97000       14.45900
C         13.19000       10.19800       11.41200
N         13.33500       10.79100       10.42200
C         10.18700        9.11700       11.27900
C         10.32000       10.52800       11.48000
N         10.32900       11.64300       11.66900
C          8.92500        8.73500       10.68200
N          7.89300        8.48100       10.26000
C         12.43400        3.26000       10.01500
C         11.79600        2.53500        8.98200
C         11.78900        3.28500        7.80700
C         12.45200        4.52000        8.07800
C         12.89200        4.47500        9.43600
C         12.85400        2.68100       11.33700
H         12.08000        2.26600       11.77400
H         13.20800        3.39500       11.90800
H         13.54800        2.00400       11.19200
C         11.40400        1.09400        9.11600
H         10.99200        0.78800        8.28100
H         10.76700        0.99600        9.85200
H         12.20200        0.55400        9.30100
C         11.44200        2.81500        6.39900
H         12.26700        2.62600        5.90800
H         10.93800        3.51600        5.93600
H         10.89900        2.00200        6.45200
C         12.90100        5.49300        7.00700
H         13.07900        6.36700        7.41500
H         12.19600        5.58500        6.33300
H         13.71800        5.15900        6.58200
C         13.78000        5.50600       10.09900
H         14.71800        5.23400       10.01300
H         13.54400        5.57700       11.04600
H         13.65100        6.37500        9.66500
C         13.77300        6.26900        9.51900
C         12.76700        3.90100        9.98000
C         12.13500        2.91300        9.19500
C         11.93700        3.43000        7.90600
C         12.43400        4.76500        7.85100
C         12.95400        5.05300        9.15600
C         13.36800        3.64200       11.32800
C         11.97600        1.49300        9.64900
C         11.57100        2.57800        6.69200
C         12.65300        5.63700        6.62600
H         12.75200        3.09500       11.86200
H         13.52500        4.49500       11.78500
H         14.21800        3.16700       11.22300
H         12.75900        0.97200        9.37400
H         11.16900        1.11000        9.24600
H         11.89500        1.46900       10.62500
H         12.38900        2.31700        6.21800
H         10.99700        3.09700        6.09100
H         11.09600        1.77500        6.98700
H         12.15300        6.47000        6.72500
H         12.33700        5.15700        5.82800
H         13.60800        5.83100        6.53100
H         14.72400        6.03600        9.50800
H         13.52100        6.57500       10.41400
H         13.60400        6.98300        8.86900
