70
C:\Users\Javier\OneDrive - Universitat de Barcelona\Tesi\4 - Contribucions\Treballs\3-PhD\chapter_1\cif\pc2p\PAWRAH.pc2p.pdb
Ru         0.76600        4.39000        7.24500
Cl         0.04400        4.45600        4.92200
C         -0.99500        6.34500        9.52400
H         -1.20500        5.93400       10.35400
C         -1.86100        7.23300        8.94600
H         -2.66500        7.45700        9.40000
C         -1.58800        7.82800        7.68900
H         -2.22400        8.41800        7.30200
C         -0.41600        7.56500        7.01900
H         -0.24600        7.95600        6.17000
C          0.53000        6.70000        7.61900
C          1.87100        6.30300        7.22500
H          2.32400        6.56200        6.43000
C          2.38000        5.46000        8.24200
H          3.26500        5.11800        8.28200
C          1.34900        5.20300        9.20500
H          1.39300        4.59300        9.93100
C          0.22800        6.04900        8.85900
P          2.05500        2.61100        6.85600
C          3.12300        2.59400        5.36500
C          3.44300        3.78700        4.72300
H          3.03400        4.59900        5.00000
C          4.36500        3.79600        3.67100
H          4.58900        4.61400        3.24200
C          4.95200        2.61100        3.25400
H          5.57500        2.61700        2.53700
C          4.63200        1.41700        3.88200
H          5.03100        0.60500        3.59100
C          3.72600        1.40900        4.93700
H          3.51500        0.59000        5.37000
C          3.29200        2.23500        8.15000
C          4.67100        2.37900        7.93100
H          4.98600        2.66000        7.08000
C          5.57900        2.11300        8.95000
H          6.51100        2.21700        8.78900
C          5.14400        1.70000       10.18600
H          5.77000        1.51000       10.87500
C          3.78400        1.56300       10.42200
H          3.48000        1.27500       11.27600
C          2.86100        1.84200        9.41900
H          1.93200        1.76500        9.59800
C          1.06900        1.03900        6.73400
H          1.46500        0.44500        6.04800
H          1.08300        0.56400        7.60300
C         -0.37400        1.39100        6.35300
H         -0.96900        0.61300        6.49000
H         -0.42600        1.66700        5.40400
P         -0.85600        2.77700        7.45600
C         -2.57500        3.19900        7.00100
C         -3.53100        2.20200        6.80500
H         -3.28000        1.28800        6.87100
C         -4.84700        2.53900        6.51300
H         -5.49000        1.85600        6.36000
C         -5.22300        3.87400        6.44400
H         -6.12800        4.10600        6.26800
C         -4.27400        4.87000        6.63300
H         -4.53000        5.78300        6.58300
C         -2.94800        4.53400        6.89700
H         -2.29700        5.21800        7.00500
C         -1.10500        1.96400        9.07900
C         -1.40000        0.60800        9.21600
H         -1.44700        0.05600        8.44600
C         -1.62800        0.06000       10.47600
H         -1.82200       -0.86700       10.55800
C         -1.57400        0.85200       11.60800
H         -1.73600        0.47500       12.46400
C         -1.27800        2.20400       11.48300
H         -1.24100        2.75500       12.25600
C         -1.03700        2.75100       10.23300
H         -0.82200        3.67300       10.15800
