245
C:\Users\Javier\OneDrive - Universitat de Barcelona\Tesi\4 - Contribucions\Treballs\3-PhD\chapter_1\cif\pc2p\PEBNIW.pc2p.pdb
Rh        11.09400        5.61400        4.73200
Ga        11.01500        3.27600        4.71100
N         11.15200        1.95300        6.10600
N         10.79000        2.02600        3.26200
C         11.24800       -0.31000        7.07100
C         11.09600        0.63100        5.90900
C         10.90600        0.05400        4.64800
C         10.75600        0.69000        3.42800
C         10.54700       -0.19000        2.22100
C         11.22200        2.42300        7.48000
C         12.47200        2.56800        8.09500
C         12.49500        2.99300        9.42400
C         11.33200        3.26300       10.10600
C         10.11600        3.10800        9.48400
C         10.02800        2.67800        8.16100
C         13.76800        2.28500        7.35200
C          8.65800        2.44300        7.54000
C         10.71400        2.53800        1.90500
C          9.46700        2.93800        1.39300
C          9.42200        3.38300        0.07400
C         10.56200        3.45000       -0.70100
C         11.77300        3.06400       -0.17400
C         11.88400        2.58700        1.13000
C          8.20600        2.88800        2.23500
C         13.23800        2.14000        1.66400
C         14.37700        3.57600        6.84300
C         14.77000        1.49400        8.19900
C          7.80700        3.71100        7.51200
C          7.90900        1.33000        8.29200
C          7.93100        4.25400        2.87000
C          6.97600        2.42700        1.44900
C         14.11100        3.33900        2.00800
C         13.96900        1.23000        0.67500
P         10.74600        7.33800        6.22100
P         12.04900        7.23700        3.42700
C         10.88000        8.93100        5.31000
C         12.03300        8.86000        4.31000
C          9.18100        7.51600        7.17800
C          9.09100        8.81600        7.99100
C          7.80400        8.86600        8.81100
C          6.58100        8.71100        7.92700
C          6.66700        7.42700        7.09500
C          7.95400        7.38200        6.26500
C         12.14500        7.37000        7.44600
C         12.66200        8.75600        7.85300
C         13.84700        8.64300        8.80500
C         13.48700        7.83200       10.03300
C         13.00000        6.43900        9.63900
C         11.81500        6.52100        8.68500
C         11.20800        7.63700        1.83700
C          9.72700        7.94600        2.07800
C          9.00100        8.31000        0.78800
C          9.17500        7.23800       -0.27700
C         10.64800        6.94800       -0.52100
C         11.36300        6.54600        0.77200
C         13.82700        6.99200        2.99400
C         14.51800        8.18300        2.33100
C         15.96400        7.85200        1.98600
C         16.74700        7.38400        3.21100
C         16.05300        6.18700        3.85000
C         14.61200        6.51500        4.22900
H         11.18500       -1.20700        6.76000
H         12.09500       -0.17600        7.48000
H         10.56000       -0.14600        7.70400
H         10.87900       -0.89700        4.62600
H         10.45700        0.35200        1.44700
H         11.29400       -0.76800        2.11700
H          9.76000       -0.70800        2.33900
H         13.33000        3.09700        9.86700
H         11.36900        3.56400       11.00500
H          9.32200        3.29200        9.97100
H         13.55300        1.74200        6.60200
H          8.78600        2.15300        6.64600
H          8.59100        3.65600       -0.29700
H         10.50700        3.75700       -1.59900
H         12.55200        3.12800       -0.71400
H          8.34800        2.26800        2.94200
H         13.08900        1.64200        2.45700
H         15.18600        3.37700        6.38600
H         14.55900        4.16700        7.56600
H         13.76800        3.99200        6.24100
H         15.56300        1.34100        7.70000
H         14.97700        1.99200        8.98100
H         14.38600        0.66000        8.44600
H          6.96500        3.51200        7.12100
H          7.67900        4.02800        8.39800
H          8.24600        4.37800        6.99700
H          7.05900        1.19300        7.89300
H          7.79600        1.58700        9.20000
H          8.41300        0.52400        8.25200
H          7.13700        4.20700        3.39100
H          8.65800        4.50500        3.42700
H          7.82000        4.90100        2.18300
H          6.21600        2.41700        2.02000
H          6.82100        3.02400        0.72800
H          7.12900        1.55400        1.11000
H         14.95000        3.03000        2.33300
H         14.24600        3.87500        1.23700
H         13.68000        3.85200        2.68200
H         14.80700        0.97800        1.04200
H         14.10800        1.69800       -0.14200
H         13.44700        0.45400        0.51100
H         11.03900        9.63500        5.92700
H         10.07000        9.09800        4.84200
H         12.85300        8.96600        4.77600
H         11.93900        9.55900        3.67400
H          9.14900        6.79700        7.79900
H          9.83700        8.86800        8.57800
H          9.10600        9.55300        7.39400
H          7.75700        9.70100        9.26200
H          7.81800        8.16200        9.45000
H          6.52100        9.45500        7.34200
H          5.80600        8.67700        8.47600
H          6.65100        6.68000        7.68000
H          5.92000        7.38600        6.51000
H          7.94900        8.09900        5.64400
H          7.99700        6.55700        5.79800
H         12.87400        6.93400        7.02100
H         12.93300        9.22500        7.07300
H         11.96200        9.23400        8.28400
H         14.11100        9.51400        9.07700
H         14.56800        8.22200        8.35200
H         14.25800        7.74600       10.58300
H         12.80300        8.28100       10.51600
H         13.70800        5.96700        9.21800
H         12.73200        5.97600       10.42400
H         11.07900        6.91500        9.13700
H         11.58400        5.64300        8.40600
H         11.61100        8.42600        1.49300
H          9.66400        8.67700        2.68200
H          9.31100        7.18300        2.46100
H          9.34800        9.13200        0.46100
H          8.07600        8.40800        0.97400
H          8.78000        7.54000       -1.08600
H          8.74400        6.44100        0.00800
H         11.06300        7.72500       -0.87400
H         10.72300        6.23700       -1.14800
H         12.28800        6.41700        0.59100
H         10.98900        5.73600        1.09600
H         13.85600        6.28100        2.36500
H         14.49900        8.92500        2.92600
H         14.05200        8.40500        1.53300
H         16.38100        8.63200        1.63900
H         15.97800        7.16600        1.32700
H         17.62400        7.13400        2.94800
H         16.79500        8.09000        3.84400
H         16.53000        5.93400        4.63200
H         16.05300        5.46700        3.23300
H         14.61200        7.20300        4.88400
H         14.19700        5.74000        4.58600
H         10.38800        4.70900        5.79800
H         11.54600        4.80100        3.46100
Al         6.00200       14.37000        5.11700
O          6.76700       14.18900        6.63400
C          7.51000       14.60000        7.65000
C          9.01700       14.57800        7.33200
C          7.24200       13.64100        8.84500
C          7.10200       16.04200        8.06700
F          9.19800       15.04600        6.09700
F          9.48100       13.32700        7.31200
F          9.74000       15.23600        8.19500
F          7.26300       12.39900        8.48600
F          6.05500       13.92400        9.41600
F          8.12300       13.76500        9.83100
F          7.65600       16.93400        7.26100
F          7.49500       16.33800        9.31000
F          5.81100       16.22000        7.99500
O          4.48400       13.66000        5.24500
C          3.21000       13.45500        5.60400
C          3.17900       12.63900        6.91000
C          2.49300       12.68100        4.48400
C          2.50300       14.84500        5.82800
F          3.46400       13.44100        7.95700
F          4.07000       11.67500        6.85500
F          1.97300       12.10900        7.08300
F          2.90200       11.43600        4.47200
F          2.76000       13.23400        3.31300
F          1.18500       12.70600        4.68600
F          1.36900       14.67100        6.50400
F          2.22900       15.40900        4.65400
F          3.27400       15.62700        6.50000
O          5.87000       16.03200        4.74300
C          6.01700       17.06900        3.87400
C          5.01000       18.19000        4.24800
C          7.48400       17.61600        3.96700
C          5.73700       16.57000        2.43600
F          5.37300       19.33500        3.67600
F          4.98600       18.35300        5.56800
F          3.80500       17.86400        3.83200
F          7.61000       18.38600        5.03300
F          7.77200       18.33400        2.87000
F          8.33600       16.60500        4.05900
F          5.47000       17.60900        1.63900
F          6.80900       15.92200        1.96400
F          4.68700       15.73700        2.43900
O          6.88000       13.59300        3.87100
C          7.37700       12.47700        3.27300
C          6.96700       12.47500        1.79200
C          8.92700       12.48700        3.39100
C          6.80100       11.21000        3.98500
F          7.15300       11.27500        1.27700
F          7.69900       13.34800        1.12400
F          5.68400       12.80500        1.68000
F          9.44200       11.56100        2.61000
F          9.28600       12.24300        4.65000
F          9.39500       13.67000        3.03000
F          7.54400       10.13600        3.67600
F          5.56400       11.00200        3.59400
F          6.81800       11.38300        5.29100
C          3.10400       13.50200        7.15100
C          2.75300       12.06500        5.08700
C          2.32100       14.56700        4.98100
F          3.73800       14.56100        7.61400
F          3.64900       12.41000        7.67400
F          1.83000       13.56700        7.51400
F          3.55300       11.12100        5.57200
F          2.79200       12.03900        3.76400
F          1.50900       11.82200        5.49200
F          1.05600       14.37900        5.33100
F          2.41200       14.53400        3.65800
F          2.72000       15.75600        5.41200
C          5.51100       18.37600        4.55300
C          7.51600       17.21300        3.50500
C          5.18400       16.78400        2.59200
F          5.20900       19.28400        3.62200
F          6.44300       18.86000        5.33700
F          4.42000       18.11700        5.27700
F          8.25800       17.09900        4.59400
F          7.73200       18.39900        2.95400
F          7.85600       16.27300        2.65200
F          5.68000       17.49900        1.55700
F          5.24300       15.49600        2.29500
F          3.91100       17.12900        2.79200
C          6.32800       11.93400        2.25500
C          8.68200       12.83700        2.53700
C          7.66200       11.39800        4.36000
F          6.87800       11.01100        1.49300
F          5.89100       12.92500        1.48700
F          5.29600       11.40000        2.91000
F          9.34900       11.73300        2.23700
F          9.44000       13.60400        3.31300
F          8.40300       13.49200        1.42100
F          7.82600       10.20400        3.78200
F          6.64800       11.33500        5.20500
F          8.76100       11.71100        5.02500
