209
C:\Users\Javier\OneDrive - Universitat de Barcelona\Tesi\4 - Contribucions\Treballs\3-PhD\chapter_1\cif\pc2p\PEBNIW01.pc2p.pdb
Rh        11.09500        5.62600        4.70600
Ga        11.00400        3.29100        4.70800
N         11.16500        1.97500        6.09700
N         10.79600        2.04400        3.26700
C         11.26600       -0.27900        7.05700
C         11.11100        0.67500        5.88700
C         10.90700        0.06900        4.65200
C         10.75400        0.75000        3.42100
C         10.54100       -0.15700        2.22100
C         11.24400        2.42700        7.47400
C         12.50600        2.58200        8.06900
C         12.56200        3.01800        9.39400
C         11.39600        3.28300       10.11000
C         10.15300        3.12400        9.49600
C         10.05800        2.68800        8.17300
C         13.82700        2.31600        7.32200
C          8.67500        2.43200        7.55600
C         10.71200        2.54100        1.90000
C          9.46500        2.93800        1.39500
C          9.40300        3.41000        0.08000
C         10.55200        3.47900       -0.70800
C         11.77900        3.07500       -0.18600
C         11.87800        2.59600        1.12200
C          8.19300        2.88100        2.25500
C         13.24300        2.14500        1.65600
C         14.41500        3.63500        6.85300
C         14.78500        1.48700        8.15900
C          7.83600        3.69500        7.54200
C          7.96900        1.31800        8.30800
C          7.91700        4.21700        2.91400
C          6.97500        2.46100        1.45500
C         14.08100        3.37000        1.95800
C         13.95900        1.26900        0.65700
P         10.74600        7.36300        6.21100
P         12.04200        7.23100        3.41700
C         10.86400        8.94000        5.29100
C         12.03200        8.87100        4.33100
C          9.16600        7.48900        7.16100
C          9.08300        8.78600        7.98100
C          7.81200        8.86400        8.82700
C          6.58900        8.71700        7.91500
C          6.68700        7.43200        7.08900
C          7.95300        7.38600        6.23100
C         12.14600        7.36900        7.44000
C         12.66600        8.75200        7.84900
C         13.85400        8.70400        8.81700
C         13.50100        7.83900       10.03300
C         13.01000        6.45000        9.60400
C         11.80600        6.50300        8.65600
C         11.22100        7.62500        1.85600
C          9.74000        7.95200        2.07800
C          9.00300        8.30100        0.77600
C          9.17000        7.19700       -0.27500
C         10.65600        6.93800       -0.52900
C         11.35300        6.54400        0.77800
C         13.81500        6.98600        2.98800
C         14.50200        8.18900        2.32700
C         15.95400        7.83000        1.97800
C         16.73500        7.40400        3.22500
C         16.05300        6.18700        3.85000
C         14.61300        6.54700        4.22500
H         11.06500       -1.31200        6.75000
H         12.28700       -0.24300        7.46000
H         10.57400       -0.02500        7.86700
H         10.97600       -1.02100        4.72600
H          9.68300        0.17900        1.62700
H         11.42000       -0.16200        1.56900
H         10.35100       -1.18800        2.53700
H         13.50400        3.14400        9.86700
H         11.45700        3.63300       11.17000
H          9.27100        3.32900       10.04700
H         13.59800        1.73000        6.42000
H          8.79800        2.10400        6.52000
H          8.47400        3.72200       -0.32300
H         10.48700        3.85800       -1.75800
H         12.64600        3.13000       -0.79400
H          8.33300        2.14200        3.05100
H         13.11200        1.58200        2.57700
H         15.29200        3.46800        6.21500
H         14.73400        4.25100        7.70000
H         13.68500        4.21200        6.27100
H         15.65600        1.18100        7.56600
H         15.15100        2.04400        9.02500
H         14.30200        0.57400        8.52200
H          6.84300        3.50500        7.11500
H          7.69100        4.08900        8.55400
H          8.31400        4.47700        6.94100
H          7.02900        1.05000        7.81300
H          7.73200        1.62300        9.33400
H          8.59400        0.41900        8.36000
H          7.11500        4.13400        3.65600
H          8.80700        4.60200        3.42300
H          7.60700        4.96400        2.17100
H          6.12300        2.25900        2.11700
H          6.67100        3.24200        0.75200
H          7.17600        1.54700        0.88200
H         15.06400        3.09300        2.35300
H         14.24100        3.97400        1.05600
H         13.58200        4.00600        2.70200
H         14.90700        0.89100        1.07000
H         14.20000        1.81600       -0.26100
H         13.35300        0.39800        0.38100
H         10.96100        9.79800        5.97900
H          9.89500        9.16300        4.80600
H         12.96900        8.89200        4.91600
H         11.92700        9.70500        3.61400
H          9.13300        6.65200        7.87700
H          9.97900        8.96800        8.59400
H          9.08100        9.65900        7.31000
H          7.80900        9.86300        9.29000
H          7.85100        8.08300        9.60000
H          6.48500        9.58400        7.24900
H          5.66200        8.61300        8.49800
H          6.60500        6.61700        7.82100
H          5.82100        7.39600        6.41400
H          8.01400        8.23600        5.53800
H          8.08400        6.45600        5.66200
H         12.99500        6.91500        6.91300
H         13.04800        9.32400        6.98900
H         11.88300        9.31500        8.37800
H         14.16800        9.72600        9.06300
H         14.68400        8.16300        8.33600
H         14.42700        7.90500       10.61900
H         12.71300        8.35200       10.60100
H         13.81400        5.79800        9.24200
H         12.68900        5.77500       10.41400
H         11.02600        7.04700        9.20800
H         11.56700        5.46200        8.40400
H         11.72200        8.52000        1.46100
H          9.61000        8.71100        2.86400
H          9.25500        7.11700        2.60200
H          9.41500        9.25900        0.42700
H          7.94200        8.50000        0.98800
H          8.64200        7.55500       -1.17200
H          8.71300        6.25500        0.06800
H         11.06000        7.86900       -0.94800
H         10.78600        6.10100       -1.22900
H         12.40000        6.33300        0.51900
H         10.90500        5.63200        1.19300
H         13.80700        6.20900        2.21100
H         14.55400        9.06200        2.99200
H         14.01100        8.47300        1.38300
H         16.48600        8.68200        1.54300
H         16.11400        7.03700        1.23300
H         17.75200        7.18500        2.87400
H         16.69600        8.15800        4.02500
H         16.62300        5.82000        4.71400
H         16.03700        5.28200        3.22500
H         14.57700        7.34200        4.98300
H         14.16800        5.63900        4.65800
H         10.34500        4.71500        5.84800
H         11.68000        4.65600        3.51500
Al         6.01800       14.32500        5.13700
O          6.81000       14.22100        6.56400
C          7.50600       14.61400        7.67200
C          9.03300       14.58200        7.30800
C          7.22700       13.64300        8.87700
C          7.07900       16.07300        8.07900
F          9.19600       15.09600        6.10700
F          9.45000       13.33500        7.32400
F          9.69900       15.29200        8.19500
F          7.24300       12.40100        8.43600
F          6.04700       13.92300        9.38600
F          8.16400       13.81000        9.78700
F          7.65700       16.92800        7.26500
F          7.46300       16.30000        9.32000
F          5.77000       16.17500        7.98700
O          4.50200       13.60300        5.25300
C          3.20400       13.44600        5.59000
C          3.14700       12.60000        6.91300
C          2.50000       12.67300        4.41700
C          2.51500       14.83400        5.86700
F          3.47700       13.36900        7.92900
F          3.99400       11.59300        6.81300
F          1.92300       12.14400        7.07700
F          2.97100       11.44300        4.37100
F          2.75300       13.29700        3.28300
F          1.20300       12.65000        4.63800
F          1.40900       14.63100        6.55000
F          2.22900       15.40600        4.71400
F          3.34000       15.59000        6.55600
O          5.79400       16.09200        4.78200
C          6.02400       17.10100        3.88600
C          4.90500       18.16700        4.17900
C          7.50000       17.64200        3.92800
C          5.85100       16.61500        2.40100
F          5.30900       19.33900        3.72800
F          4.71000       18.22800        5.48000
F          3.79600       17.80300        3.57000
F          7.62400       18.45300        4.95900
F          7.75000       18.29200        2.81200
F          8.32500       16.62500        4.05100
F          5.69900       17.66400        1.62100
F          6.92500       15.93800        2.04600
F          4.79000       15.84300        2.32700
O          6.88600       13.66000        3.82200
C          7.36500       12.50900        3.32300
C          7.02900       12.45500        1.79000
C          8.93500       12.56200        3.37500
C          6.85300       11.19000        4.00700
F          7.17400       11.21800        1.36300
F          7.85500       13.25400        1.14400
F          5.78700       12.85200        1.60900
F          9.42100       11.66600        2.53700
F          9.32900       12.29100        4.60200
F          9.33300       13.76700        3.02800
F          7.67700       10.20600        3.70800
F          5.64500       10.91600        3.55800
F          6.82200       11.36900        5.30900
