110
C:\Users\Javier\OneDrive - Universitat de Barcelona\Tesi\4 - Contribucions\Treballs\3-PhD\chapter_1\cif\pc2p\PEMVIM.pc2p.pdb
Sn         1.28100        2.98500        4.61700
Pd         3.01300        3.11400        2.59100
P          5.02500        1.96800        2.93600
P          3.92100        3.80200        0.61100
Si         0.49900       -0.32800        4.46000
Si        -1.86800        1.73500        4.91400
Si         2.12000        3.68000        7.93200
Si         1.45000        6.10300        6.00100
C          1.22700        4.01500        2.13700
C          0.26200        4.01500        3.03000
C          6.18100        2.44400        1.56500
C          5.45600        2.84400        0.28000
C          6.03900        2.30100        4.44500
C          6.22400        3.78400        4.63300
C          5.38500        1.68700        5.66800
C          4.96500        0.12200        2.80400
C          6.27300       -0.60500        3.07400
C          4.39900       -0.30300        1.45400
C          2.87800        3.57600       -0.88700
C          3.59100        3.85200       -2.21600
C          2.23200        2.20400       -0.90000
C          4.44400        5.56900        0.50100
C          3.28400        6.50400        0.73900
C          5.57500        5.89500        1.46700
C         -0.06900        1.29500        5.17600
C          1.20700        4.30700        6.42300
C          0.83900       -0.19900        2.63300
C          2.05400       -0.90600        5.32400
C         -0.72800       -1.71400        4.68700
C         -2.28700        3.48300        5.45600
C         -2.38400        1.54500        3.13600
C         -2.99100        0.66400        5.96900
C          2.24200        1.83200        8.03600
C          1.23600        4.20300        9.50000
C          3.86100        4.31400        8.01100
C          2.99600        6.38400        5.03100
C          1.54100        7.21500        7.50100
C          0.02100        6.77600        5.00600
H          1.17100        4.41600        1.27100
H         -0.62700        4.36200        2.99400
H          6.77200        1.69600        1.38600
H          6.73400        3.17300        1.86000
H          6.02300        3.37000       -0.28600
H          5.20700        2.05200       -0.21800
H          6.92000        1.90500        4.34800
H          6.66600        4.19900        3.88200
H          5.38100        4.23500        4.75400
H          6.76400        3.99300        5.41700
H          4.49900        2.04500        5.79200
H          5.26900        0.72000        5.54700
H          5.88100        1.81600        6.45900
H          4.34600       -0.16500        3.50700
H          6.96800       -0.34200        2.47300
H          6.61400       -0.42300        3.98000
H          6.19500       -1.56900        3.02200
H          3.51600        0.05900        1.32100
H          4.96000        0.02700        0.75500
H          4.34500       -1.25000        1.38500
H          2.13800        4.19600       -0.88400
H          3.91000        4.78800       -2.20400
H          4.36400        3.30600       -2.29600
H          3.03700        3.75300       -2.96200
H          2.92900        1.50800       -0.89100
H          1.70400        2.05200       -0.11200
H          1.69200        2.03800       -1.66300
H          4.77700        5.72100       -0.40100
H          2.57100        6.35700        0.09400
H          2.90600        6.37300        1.60700
H          3.53700        7.42800        0.66400
H          5.28300        5.73400        2.38800
H          6.34400        5.33800        1.32900
H          5.85200        6.80800        1.42300
H          0.00300        1.15300        6.12800
H          0.29500        4.23000        6.71400
H         -0.00500        0.07900        2.16100
H          1.47100        0.47300        2.42900
H          1.08500       -1.01900        2.25000
H          2.76100       -0.26500        5.22000
H          1.90000       -1.03300        6.25800
H          2.35800       -1.73900        4.95500
H         -0.93300       -1.85000        5.61900
H         -1.59200       -1.47000        4.26800
H         -0.45000       -2.51600        4.30400
H         -2.08400        3.61200        6.38800
H         -1.74100        4.12900        4.96700
H         -3.19100        3.69600        5.30500
H         -1.85900        2.12400        2.56400
H         -2.26000        0.65000        2.83200
H         -3.30400        1.78200        3.01500
H         -2.87400       -0.28100        5.75600
H         -2.79700        0.75900        6.90600
H         -3.91400        0.86700        5.83400
H          1.36000        1.41500        8.04200
H          2.69100        1.46100        7.24800
H          2.71200        1.53100        8.79600
H          1.21200        5.18800        9.57500
H          0.36300        3.88800        9.56600
H          1.73000        3.91600       10.29700
H          4.37700        4.02200        7.25800
H          3.89400        5.25900        8.05700
H          4.31500        3.96800        8.80700
H          3.77900        6.08300        5.55100
H          3.00800        5.88400        4.22100
H          3.13900        7.30100        4.83700
H          0.77100        7.15400        8.05900
H          2.30700        6.94100        8.09200
H          1.70400        8.12600        7.29000
H         -0.07200        6.27800        4.17900
H         -0.79600        6.68500        5.48900
H          0.15700        7.68900        4.78500
