80
C:\Users\Javier\OneDrive - Universitat de Barcelona\Tesi\4 - Contribucions\Treballs\3-PhD\chapter_1\cif\pc2p\PEYXIB.pc2p.pdb
Pd         9.14400        0.52100        4.08500
P         10.56900        2.15200        3.51500
Cl         7.48900       -1.10800        4.53800
O         12.63000        4.31700        3.62400
O          9.23600        1.96600        0.91800
C         11.91100        2.37600        4.71500
C         12.05200        1.45700        5.74100
H         11.42900        0.75700        5.81600
C         13.08400        1.53500        6.65900
H         13.16700        0.89600        7.34200
C         13.99100        2.57700        6.55000
H         14.69700        2.64900        7.16800
C         13.86400        3.50200        5.54500
H         14.49300        4.19600        5.47800
C         12.83000        3.43700        4.63000
C         13.52700        5.40800        3.51100
H         13.29200        5.94300        2.73700
H         14.43200        5.07300        3.41000
H         13.47400        5.95600        4.31000
C         11.36600        1.95200        1.88900
C         12.75100        1.83100        1.77900
H         13.28900        1.83600        2.55000
C         13.33800        1.70200        0.51300
H         14.27200        1.63900        0.43000
C         12.55400        1.67000       -0.58700
H         12.96000        1.60200       -1.43100
C         11.14800        1.73300       -0.51500
H         10.61600        1.68400       -1.28700
C         10.58900        1.87200        0.73400
C          8.41500        1.92400       -0.25500
H          7.48100        1.99300        0.00000
H          8.55900        1.08600       -0.72200
H          8.64600        2.66300       -0.83800
C          9.61900        3.72900        3.49100
H         10.23100        4.49300        3.55200
H          9.11300        3.80500        2.65500
Cl        11.39300        5.52800        6.74900
Cl        10.40600        7.35000        8.68700
C         10.56800        6.98900        7.05000
H         11.03800        7.72600        6.60900
H          9.66500        6.93600        6.65300
Cl        10.42900        7.66400        3.42300
C          9.40400        8.48200        4.54500
H          9.24500        9.39600        4.23000
H          9.85300        8.53700        5.41300
P          7.71900        2.15200        4.65400
Cl        10.79900       -1.10800        3.63100
O          5.65900        4.31700        4.54500
O          9.05200        1.96600        7.25100
C          6.37700        2.37600        3.45400
C          6.23600        1.45700        2.42800
H          6.85900        0.75700        2.35300
C          5.20400        1.53500        1.51000
H          5.12100        0.89600        0.82700
C          4.29700        2.57700        1.61900
H          3.59100        2.64900        1.00200
C          4.42400        3.50200        2.62400
H          3.79500        4.19600        2.69100
C          5.45800        3.43700        3.53900
C          4.76100        5.40800        4.65800
H          4.99600        5.94300        5.43200
H          3.85600        5.07300        4.75900
H          4.81400        5.95600        3.85900
C          6.92200        1.95200        6.28000
C          5.53700        1.83100        6.39000
H          4.99900        1.83600        5.61900
C          4.95000        1.70200        7.65600
H          4.01600        1.63900        7.73900
C          5.73400        1.67000        8.75600
H          5.32800        1.60200        9.60000
C          7.14000        1.73300        8.68400
H          7.67200        1.68400        9.45600
C          7.69900        1.87200        7.43500
C          9.87300        1.92400        8.42400
H         10.80700        1.99300        8.16900
H          9.72900        1.08600        8.89100
H          9.64200        2.66300        9.00700
C          8.66900        3.72900        4.67800
H          8.05700        4.49300        4.61700
H          9.17500        3.80500        5.51400
