121
C:\Users\Javier\OneDrive - Universitat de Barcelona\Tesi\4 - Contribucions\Treballs\3-PhD\chapter_1\cif\pc2p\PIPJAC.pc2p.pdb
Ru        -0.90200        1.81700       16.31600
P          0.19900        3.77000       15.88900
P          0.22100        1.11900       14.44600
O         -8.33000        3.83500       10.59200
N         -2.36600        2.59600       15.16300
C         -5.58600        4.83200       11.58600
C         -0.73000        5.28900       16.23500
C         -8.63300        4.99300       10.79600
N         -7.63700        5.98200       10.79000
C         -4.10200        3.63300       13.58500
C         -9.97900        5.45300       11.03600
C         -5.25600        5.55100       12.73600
H         -5.54800        6.45000       12.83400
N         -9.16400        7.66200       11.25900
C          2.42000        5.29100       16.63500
H          1.97200        6.02000       16.22200
C          1.23600        2.48900       13.74900
H          2.15000        2.45800       14.12800
H          1.30400        2.39100       12.76600
C          3.68200        5.48900       17.21800
H          4.07700        6.35300       17.21200
O         -6.95700        8.14300       10.85000
C          1.37800       -0.26200       14.74300
C         -4.49300        2.89300       12.47300
H         -4.25400        1.97600       12.40000
C         -1.78100        1.81100       18.36700
H         -2.25800        2.54400       18.73700
C          1.82600        4.04900       16.65900
C          2.75500       -0.08200       14.90000
H          3.14400        0.77400       14.76300
C         -0.09400        0.36300       17.75600
H          0.76700       -0.02200       17.63600
C         -6.27800        5.51600       10.42400
C          3.55300       -1.16000       15.25800
H          4.49300       -1.04400       15.33300
C          2.51800        2.99400       17.23700
H          2.12900        2.12600       17.24000
C         -0.85900        0.52800       13.08800
C         -5.23100        3.50100       11.48100
H         -5.49600        3.00000       10.71900
C        -10.18000        6.74200       11.27000
H        -11.06400        7.03900       11.45300
C         -7.84600        7.32200       10.96200
C         -2.33600        0.73000       17.61400
H         -3.25300        0.63000       17.38400
C         -1.15900        5.49000       17.53000
H         -0.92300        4.87200       18.21200
C         -2.29200        7.49800       16.89500
H         -2.80400        8.26300       17.13000
C          0.58400        3.81400       14.08900
H         -0.24400        3.93600       13.56200
H          1.20000        4.56300       13.88700
C         -0.64600        0.82200       11.74300
H          0.09500        1.35900       11.48900
C         -2.57900       -0.45800       11.12600
H         -3.16600       -0.78900       10.45700
C         -4.50300        4.95900       13.73600
H         -4.26300        5.44900       14.51500
C         -1.93700        6.59800       17.83400
H         -2.22800        6.72600       18.72900
C         -3.17700        3.04800       14.51700
C          4.33400        4.44600       17.79000
H          5.19000        4.58100       18.17800
C         -1.31400       -0.15300       17.27000
H         -1.42200       -0.96700       16.79200
C         -2.79700       -0.76600       12.45600
H         -3.51600       -1.33700       12.69700
C         -0.39000        1.58500       18.46200
H          0.23700        2.13800       18.91000
C          3.00200       -2.39400       15.50700
H          3.55500       -3.12100       15.76600
C          1.66800       -2.56200       15.37600
H          1.28500       -3.41100       15.56300
C         -1.97200       -0.24600       13.43300
H         -2.16200       -0.41500       14.34900
C          3.76100        3.18500       17.80800
H          4.22000        2.45700       18.21200
C          0.85000       -1.52800       14.97600
H         -0.08000       -1.67900       14.85900
C         -1.10500        6.19700       15.26600
H         -0.82100        6.07700       14.36700
C         -1.90800        7.29600       15.60400
H         -2.18500        7.90500       14.93000
C         -1.50500        0.33400       10.77700
H         -1.35400        0.54700        9.86300
C        -11.08600        4.44100       10.97900
H        -10.70900        3.55500       10.79600
H        -11.71200        4.68400       10.26500
H        -11.55900        4.42500       11.83600
C         -9.44400        9.10200       11.36000
N        -10.18300       13.02700       11.30400
N        -10.27300       14.05000       11.09400
O        -10.05500        9.67500       10.27400
C        -10.03300        9.55500       12.42100
N        -10.14800       11.90400       11.93700
O        -12.87800        8.78600       11.69600
H        -13.67400        8.54400       11.81200
C        -11.36900       10.35700       10.59900
H        -11.42400       11.19100       10.04800
C        -12.81400        9.69700       10.62200
H        -13.50400       10.39900       10.73200
H        -12.98300        9.22600        9.76800
C        -10.93300       10.73800       11.94200
C        -10.49900        9.27100       10.11700
O        -10.70800        9.07500       12.55500
N         -9.64800       11.89600       11.40100
O        -12.95300        8.70900       10.76700
H        -13.25200        8.00600       11.11500
C        -10.86700       10.87300       11.02900
C        -12.92000        9.75500       11.75000
H        -13.40500       10.55000       11.40800
H        -13.39200        9.45100       12.57200
C        -11.68700       10.11200       12.07700
H        -11.79000       10.74900       12.84300
P         -2.53700       11.18300        3.40600
F         -3.72100       11.06000        2.50100
F         -1.59900       11.62600        2.29200
F         -2.27100        9.71300        2.96800
F         -2.98100       12.56200        3.80300
F         -3.48900       10.68000        4.57700
F         -1.43200       11.14800        4.31500
