97
C:\Users\Javier\OneDrive - Universitat de Barcelona\Tesi\4 - Contribucions\Treballs\3-PhD\chapter_1\cif\pc2p\POLXET.pc2p.pdb
Pd         9.70800       15.66800        1.48600
Cl        10.00100       14.52600       -0.60100
Cl         6.99800       14.06500        1.45600
P          9.62300       16.62500        3.49300
P         10.86200       17.54200        0.76400
C          8.59500       14.02400        2.17300
C         10.20500       18.36400        3.37200
C         11.22600       18.58700        2.23300
C         10.70100       15.87300        4.78500
C         12.15400       15.86100        4.40600
C         13.03500       15.28300        5.52900
C         12.61500       13.90700        5.88700
C         11.18200       13.88700        6.25700
C         10.27900       14.46200        5.15900
C          7.94500       16.75800        4.24000
C          6.92400       17.33000        3.28200
C          5.51900       17.31500        3.87100
C          5.50500       17.99200        5.20200
C          6.51000       17.45600        6.19600
C          7.92500       17.49200        5.59900
C         12.49000       17.22100       -0.00400
C         13.28900       18.47700       -0.36000
C         14.63400       18.12200       -0.98700
C         15.43500       17.19400       -0.10800
C         14.65300       15.96300        0.23100
C         13.31600       16.28100        0.87100
C          9.96300       18.66800       -0.37800
C          9.78900       18.10900       -1.76900
C          9.08700       19.08400       -2.69900
C          7.74600       19.47800       -2.14300
C          7.91000       20.04900       -0.72500
C          8.61400       19.05200        0.18500
H          9.05800       13.19100        1.91500
H          8.54900       14.02000        3.12400
H          9.44500       18.92100        3.21500
H         10.59600       18.60600        4.20700
H         12.09900       18.35700        2.56800
H         11.22100       19.49300        1.98200
H         10.59400       16.42300        5.58400
H         12.24600       15.24000        3.62600
H         12.44600       16.69400        4.12700
H         13.96700       15.29800        5.33400
H         12.91900       15.83400        6.34400
H         12.75500       13.32300        5.12800
H         13.16000       13.53200        6.61000
H         10.90200       12.95900        6.48900
H         11.04800       14.38800        7.07400
H          9.36100       14.40700        5.41100
H         10.37900       13.87700        4.36600
H          7.69600       15.83100        4.47100
H          7.15300       18.20500        3.05700
H          6.90200       16.78800        2.47900
H          4.91300       17.72500        3.30800
H          5.25400       16.39800        4.03700
H          5.70300       18.93300        5.08900
H          4.61200       17.95200        5.59300
H          6.47100       17.89600        7.02900
H          6.26200       16.50200        6.37900
H          8.54800       17.07800        6.20200
H          8.16900       18.38600        5.46000
H         12.34600       16.78800       -0.88100
H         12.79500       18.99400       -0.96400
H         13.43200       18.95000        0.45100
H         14.49300       17.67200       -1.80400
H         15.13400       18.90500       -1.11700
H         16.28500       16.93700       -0.51600
H         15.68000       17.61200        0.74300
H         14.50800       15.45200       -0.60400
H         15.17500       15.34400        0.79300
H         13.45600       16.63200        1.73500
H         12.81800       15.41400        1.01400
H         10.48900       19.45000       -0.47100
H         10.66800       17.84700       -2.13700
H          9.28600       17.26600       -1.73300
H          9.66100       19.83900       -2.80800
H          8.98100       18.67000       -3.56800
H          7.34800       20.12400       -2.68800
H          7.19200       18.70800       -2.07400
H          8.42600       20.87100       -0.72600
H          7.04400       20.28500       -0.33200
H          8.05700       18.24700        0.23700
H          8.71200       19.38000        1.07000
Cl         4.43400       12.93400        9.06500
Cl         3.34000       15.44100        9.77800
Cl         2.60800       13.03000       11.03100
C          3.91500       14.07000       10.30000
H          4.67900       14.28500       10.94900
Cl        -0.48400        3.72900        7.88700
Cl         1.64300        5.53200        7.77700
Cl         2.17200        2.76400        8.02100
C          1.14800        4.03300        8.37000
H          1.27000        4.10300        9.31300
Cl        -2.79500       -1.70600        8.21700
Cl        -1.42300        0.65200        9.06500
Cl        -0.63700       -1.90500       10.04300
C         -2.00400       -0.93400        9.53100
H         -2.62000       -0.86200       10.27700
