49
C:\Users\Javier\OneDrive - Universitat de Barcelona\Tesi\4 - Contribucions\Treballs\3-PhD\chapter_1\cif\pc2p\PUSSUU.pc2p.pdb
C         12.40800        2.41800        5.03500
C         11.07200        2.98600        5.24500
H         10.87000        3.01400        6.21400
H         10.39400        2.41600        4.80400
C         11.01500        4.40400        4.66500
H         11.01300        4.32700        3.67700
H         11.85000        4.87100        4.92000
C          8.17200        5.03100        4.16000
C          8.16200        3.96500        3.27300
H          8.91500        3.38800        3.21600
C          7.06200        3.74300        2.47200
H          7.06500        3.01300        1.86300
C          5.95400        4.57300        2.54400
H          5.20500        4.42300        1.97900
C          5.94900        5.62200        3.44900
H          5.19200        6.19400        3.50800
C          7.04200        5.83700        4.26500
H          7.02300        6.54100        4.90400
C         10.17500        7.08800        4.53900
H         10.69700        6.97500        3.70600
H          9.39400        7.66300        4.34300
C         11.04400        7.73600        5.61900
H         11.23200        8.68000        5.38900
H         11.90600        7.25500        5.70300
C          8.95700        9.02900        7.06200
C          7.58400        8.81500        7.11100
H          7.24600        7.93800        7.24900
C          6.71000        9.87700        6.95700
H          5.77200        9.73000        6.98700
C          7.20400       11.15300        6.76100
H          6.60200       11.88000        6.65700
C          8.56800       11.37800        6.71600
H          8.90100       12.25800        6.58600
C          9.44800       10.31700        6.86000
H         10.38600       10.46800        6.82300
C         11.25900        8.00400        8.55200
H         11.95100        8.63400        8.22600
H         10.75800        8.45800        9.27600
C         11.95400        6.76500        9.13500
H         12.64500        7.06000        9.77900
H         11.28700        6.23000        9.63200
C         12.58800        5.90800        8.11900
Cl         8.32200        3.44100        7.31600
Cl         8.56600        6.14400        9.55400
N         13.45800        2.01000        4.88400
N         13.07000        5.23200        7.34100
P          9.61200        5.45800        5.14900
P         10.10900        7.63900        7.18400
Pd         9.15700        5.64400        7.31700
