158
C:\Users\Javier\OneDrive - Universitat de Barcelona\Tesi\4 - Contribucions\Treballs\3-PhD\chapter_1\cif\pc2p\PUSTAB.pc2p.pdb
C          7.26600        8.88700        1.32900
C          7.26300       10.18900        1.80400
H          6.67800       10.83600        1.42800
C          8.12300       10.53800        2.83500
H          8.11800       11.42900        3.16800
C          8.98900        9.60800        3.38900
H          9.58700        9.86700        4.08100
C          8.97900        8.30000        2.93300
H          9.55400        7.65200        3.32300
C          8.12900        7.94700        1.90400
H          8.12900        7.05400        1.58100
C          7.17900        7.86300       -1.36400
H          7.92800        8.50500       -1.44600
H          7.56900        6.97900       -1.14600
C          6.47500        7.76100       -2.72000
H          6.04700        8.63200       -2.92100
H          7.15600        7.59500       -3.41900
C          5.45900        6.71100       -2.79400
C          5.28400        6.91700        0.72100
H          4.82300        6.41100        0.00600
H          5.94200        6.32000        1.15800
C          4.27100        7.44300        1.74800
H          4.73900        7.86800        2.51000
H          3.71200        6.70200        2.09300
C          2.03900        7.75400       -0.07300
C          2.22100        7.61400       -1.44300
H          2.93500        8.06600       -1.87700
C          1.35700        6.81200       -2.18100
H          1.48200        6.71600       -3.11800
C          0.31300        6.15100       -1.54800
H         -0.27800        5.60200       -2.05100
C          0.13000        6.28900       -0.17600
H         -0.58400        5.83800        0.25600
C          0.99300        7.09200        0.56100
H          0.86900        7.18700        1.49800
C          2.30500        9.60000        2.13800
H          1.53400       10.05200        1.71300
H          1.95800        8.97600        2.82300
C          3.19700       10.63500        2.80000
H          3.85800       10.17000        3.37100
H          3.69500       11.12400        2.09800
C          2.47200       11.57800        3.60000
Cl         6.11800       11.05200       -1.76300
Cl         2.72600       11.39800       -0.74300
N          4.67700        5.89100       -2.84900
N          1.91000       12.34400        4.23100
P          6.11600        8.38600        0.03000
P          3.23700        8.66400        0.87500
Pd         4.55300        9.90200       -0.42900
C          2.06000        7.57600       -0.00300
C          1.70700        7.85800       -1.31800
H          2.09800        8.59800       -1.76700
C          0.78100        7.05700       -1.97600
H          0.53900        7.24900       -2.87400
C          0.20900        5.97400       -1.31800
H         -0.42400        5.42500       -1.76900
C          0.56200        5.69100       -0.00400
H          0.17200        4.95000        0.44400
C          1.48800        6.49200        0.65300
H          1.73000        6.30000        1.55100
C          6.78800        5.96500        7.14200
C          7.55700        7.11000        6.97700
H          7.42300        7.66800        6.22000
C          8.52400        7.44000        7.92000
H          9.05100        8.22200        7.80700
C          8.72100        6.62400        9.02800
H          9.38200        6.84900        9.67200
C          7.95200        5.47800        9.19200
H          8.08600        4.92000        9.95000
C          6.98500        5.14900        8.25000
H          6.45800        4.36600        8.36300
C          6.46700        5.54500        4.33000
H          5.84600        5.27000        3.60900
H          6.76800        6.46400        4.12400
C          7.69000        4.62000        4.28100
H          8.26000        4.88000        3.51500
H          8.22000        4.74200        5.10800
C          7.32200        3.21000        4.15100
C          4.86200        3.91600        6.21900
H          4.48200        3.53000        5.39000
H          5.57800        3.31600        6.54800
C          3.75700        4.08300        7.29700
H          4.14800        4.38000        8.15700
H          3.27500        3.23100        7.44200
C          1.70100        4.50400        5.34200
C          1.04700        5.27200        4.38500
H          1.10200        6.22000        4.41900
C          0.31300        4.65400        3.38100
H         -0.13400        5.17900        2.72700
C          0.23300        3.26700        3.33200
H         -0.27000        2.84400        2.64500
C          0.88600        2.49900        4.28900
H          0.83000        1.55100        4.25500
C          1.62000        3.11700        5.29300
H          2.06700        2.59200        5.94700
C          1.43000        5.82100        7.92300
H          1.91600        6.32000        8.62600
H          0.76900        6.44100        7.52500
C          0.67400        4.68600        8.58600
H          1.29400        3.93000        8.73800
H          0.34300        4.99000        9.46800
C         -0.44600        4.22700        7.79400
Cl         5.29400        8.78000        5.14000
Cl         1.93200        8.46200        5.71700
N          7.03800        2.11600        4.08300
N         -1.31900        3.88300        7.13900
P          5.52600        5.59300        5.90000
P          2.63000        5.35900        6.62200
Pd         3.84700        7.06500        5.86500
C          6.70600        6.74900        6.68400
C          7.60900        7.42300        5.85600
H          7.46400        7.43700        4.91700
C          8.71200        8.07000        6.38600
H          9.30700        8.53800        5.81200
C          8.95500        8.04600        7.74900
H          9.72700        8.46000        8.10500
C          8.05700        7.38800        8.60700
H          8.18800        7.38200        9.54700
C          6.96100        6.75400        8.03400
H          6.35600        6.29700        8.60700
C          6.12400        5.35200        4.29200
H          5.40700        4.96800        3.72800
H          6.40500        6.20300        3.87200
C          7.31600        4.39400        4.26300
H          7.80200        4.50600        3.40900
H          7.93400        4.62200        5.00000
C          6.89000        3.00100        4.40000
C          5.11000        4.26400        6.91500
H          5.84000        3.61800        6.74800
H          5.13600        4.50700        7.87400
C          3.78000        3.59300        6.61300
H          3.47800        3.09800        7.41500
H          3.90600        2.93800        5.88100
C          1.61900        3.98700        4.79100
C          1.41300        4.63400        3.59200
H          1.73200        5.52200        3.47700
C          0.74600        4.00600        2.55100
H          0.58000        4.47600        1.74200
C          0.32000        2.69400        2.68700
H         -0.16200        2.27300        1.98600
C          0.60100        2.00200        3.84900
H          0.39700        1.07700        3.91200
C          1.19100        2.66200        4.93200
H          1.28900        2.21400        5.76200
C          1.25500        4.86700        7.47700
H          0.57400        5.54800        7.24600
H          0.79700        3.99200        7.54100
C          1.85300        5.20900        8.82900
H          1.14600        5.12900        9.52000
H          2.56000        4.55200        9.04300
C          2.40900        6.53200        8.88100
Cl         4.62700        8.73300        5.12600
Cl         1.32300        7.73000        5.31800
N          6.57300        1.91800        4.42900
N          2.87400        7.57400        8.88100
P          5.40700        5.73900        5.93600
P          2.49500        4.79000        6.13000
Pd         3.45100        6.74700        5.64400
