87
C:\Users\Javier\OneDrive - Universitat de Barcelona\Tesi\4 - Contribucions\Treballs\3-PhD\chapter_1\cif\pc2p\PUSXAC.pc2p.pdb
P          0.59800       11.50000       11.73300
N          1.63900       10.40200       14.71400
C         -0.69300       12.80600       11.80500
B          5.29400       13.38900       13.90400
P          0.44300       13.34900       14.28700
C         -1.05700       13.01100       13.27100
B          5.66300       11.85900       13.14700
C          1.33400        9.57700       15.37600
B          4.20400       12.05500       14.34700
B          3.54900       13.69800       14.03300
C          0.86800        8.46900       16.25600
B          4.47500       14.45100       12.72000
B          5.72300       13.31700       12.17100
S          4.01600       10.85800       12.64300
Rh         2.14700       12.09900       13.39900
B          2.84800       13.82900       12.32300
B          4.31600       13.55900       11.15900
B          5.05600       11.89800       11.43200
C         -0.30800        9.93800       11.97500
C          0.43200        8.77500       12.29600
C         -0.19000        7.58000       12.45700
C         -1.54800        7.47000       12.35800
C         -2.26600        8.59900       12.05500
C         -1.66400        9.81500       11.87500
C          0.52900       15.18500       14.40300
C          1.07400       15.75900       15.54800
C          1.20100       17.16400       15.62900
C          0.76900       17.93900       14.58700
C          0.19100       17.37200       13.47600
C          0.10000       15.98600       13.39900
C         -0.02300       12.86600       15.97900
C         -1.35100       12.88000       16.41600
C         -1.66600       12.54500       17.70300
C         -0.67700       12.22700       18.61400
C          0.64800       12.20700       18.21100
C          0.97500       12.55700       16.89000
C          1.09800       11.44000        9.97700
C          1.47000       12.60000        9.32500
C          1.86500       12.57400        8.01400
C          1.88100       11.37700        7.31000
C          1.50500       10.19500        7.92700
C          1.09700       10.25200        9.27300
C         10.15300       15.87600        9.73700
C         11.34800       16.23000        9.71000
C         12.57700       16.92500        9.98100
C          8.93300       16.60200        9.92500
C          7.70300       17.07500       10.35200
H         -0.35500       13.63300       11.42600
H         -1.47500       12.53300       11.30000
H          5.99000       13.82600       14.66600
H         -1.50300       12.21900       13.60600
H         -1.67300       13.75700       13.34700
H          6.52500       11.24700       13.36600
H          4.22800       11.35500       15.19600
H          3.09500       14.19800       14.85200
H          1.61000        8.12800       16.75900
H          0.49700        7.76700       15.71800
H          0.19500        8.80000       16.85700
H          4.71300       15.50100       12.63500
H          6.69400       13.70400       11.78600
H          2.08300       14.55100       11.96600
H          4.47500       14.17900       10.25200
H          3.20400       13.15100       11.33700
H          5.60600       11.42700       10.61700
H          1.35400        8.83100       12.39700
H          0.31700        6.82100       12.63900
H         -1.97400        6.65400       12.49200
H         -3.19000        8.53600       11.97100
H         -2.18300       10.56300       11.68500
H          1.35400       15.22200       16.25400
H          1.57600       17.55800       16.38200
H          0.86800       18.86300       14.63300
H         -0.13200       17.90700       12.78800
H         -0.26600       15.59800       12.63700
H         -2.02700       13.11700       15.82300
H         -2.55700       12.53100       17.97000
H         -0.90000       12.02900       19.49400
H          1.31700       11.96400       18.80900
H          1.86600       12.57900       16.62700
H          1.45100       13.40900        9.78200
H          2.12400       13.36100        7.59400
H          2.14700       11.36900        6.41800
H          1.52200        9.38800        7.46800
H          0.82000        9.47200        9.69700
C          6.47300       17.54800       10.77800
C          5.25200       18.27400       10.96600
C          4.05800       17.92000       10.99300
