63
C:\Users\Javier\OneDrive - Universitat de Barcelona\Tesi\4 - Contribucions\Treballs\3-PhD\chapter_1\cif\pc2p\PUTKIB.pc2p.pdb
Pd        10.15300        8.34900        2.49100
P         11.34200       10.29100        2.39900
P          8.66400        9.48900        3.88000
F         10.04300        5.49300        3.02200
F          8.17200        6.42400        3.54000
F          9.47300        5.57000        0.47800
F          7.88300        4.76100        1.56900
F          7.60300        6.71200        0.86800
C          9.19600        6.49900        2.59600
C          8.53800        5.91100        1.38100
C         11.55200        7.48500        1.20000
H         11.79000        6.59200        1.52600
H         12.35500        8.04600        1.16700
H         11.16700        7.41300        0.30100
C         10.33700       11.62800        3.15400
H         10.94100       12.32200        3.51700
H          9.77900       12.04900        2.45100
C          9.43100       11.12100        4.27100
H          8.71500       11.78500        4.43200
H          9.96100       11.03800        5.10300
C         12.92500       10.37200        3.34200
H         13.23200       11.32400        3.32600
C         12.71300        9.98800        4.79600
H         13.57300       10.00200        5.26500
H         12.32900        9.08700        4.84300
H         12.10000       10.62700        5.21700
C         14.03800        9.52500        2.73600
H         14.85600        9.63300        3.26700
H         14.20700        9.81400        1.81600
H         13.77000        8.58200        2.73800
C         11.75500       10.92300        0.73000
H         12.44700       10.30700        0.35200
C         12.36900       12.33200        0.72900
H         12.57800       12.59600       -0.19100
H         13.19000       12.33200        1.26400
H         11.72900       12.96800        1.11300
C         10.54500       10.83300       -0.18400
H         10.80800       11.06800       -1.09800
H          9.85400       11.45500        0.12600
H         10.19300        9.91900       -0.17100
C          6.99700        9.97400        3.25700
H          6.65900       10.70600        3.84900
C          7.09100       10.54000        1.84900
H          6.19700       10.78900        1.53700
H          7.47000        9.86300        1.25000
H          7.66900       11.33200        1.85400
C          5.97500        8.85400        3.30100
H          5.11800        9.17900        2.95600
H          5.86200        8.55200        4.22600
H          6.28600        8.10500        2.74900
C          8.32800        8.76200        5.53800
H          7.71600        7.98400        5.39500
C          7.61400        9.72300        6.49200
H          7.40000        9.25700        7.32700
H          6.78600       10.04300        6.07500
H          8.19900       10.48600        6.68500
C          9.61000        8.21100        6.15200
H          9.39300        7.70500        6.96300
H         10.20700        8.95400        6.38200
H         10.05400        7.62300        5.50700
F          9.03200        6.24300        0.16400
F          8.12000        4.67300        1.65900
F          7.50200        6.73700        1.17100
