104
C:\Users\Javier\OneDrive - Universitat de Barcelona\Tesi\4 - Contribucions\Treballs\3-PhD\chapter_1\cif\pc2p\QACFAC01.pc2p.pdb
Ru        -9.12200       -2.30800       -5.15100
Cl         3.06900        1.29800        3.23300
Cl         0.12500        3.24200        0.15000
P         -7.61100       -1.01100       -6.24000
P         -7.32500       -2.54900       -3.60200
O        -11.65200       -4.37800       -6.25600
O        -11.30800       -3.56300       -8.32000
O         -6.69600       -4.02200       -7.40800
O         -6.95000       -5.84200       -6.14500
O        -11.99300       -0.63900       -7.49600
O        -10.51400        0.84300       -6.63400
O        -11.67400       -1.72600       -2.66500
O        -10.45400        0.07700       -2.07000
O        -10.47600       -3.65600       -3.98500
C         -9.49500       -3.50400       -6.89100
C         -8.64200       -4.24200       -6.00900
C        -10.91700       -3.87300       -7.10000
C        -12.70200       -3.78900       -8.60900
C         -7.34100       -4.65300       -6.59800
C         -5.71600       -6.34800       -6.71900
C        -10.92500       -1.16400       -5.44100
C        -10.26000       -0.62700       -4.27300
C        -11.19400       -0.32500       -6.61700
C        -10.79300        1.71400       -7.74100
C        -10.86700       -0.85100       -2.98100
C        -11.02900       -0.01000       -0.75400
C         -5.91200       -1.47600       -5.73100
C         -5.88000       -1.58300       -4.19300
C         -7.48900       -1.01600       -8.05900
C         -8.63900       -0.91100       -8.85000
C         -8.57200       -0.83800      -10.22000
C         -7.35400       -0.90200      -10.85300
C         -6.19800       -1.04500      -10.08400
C         -6.26200       -1.08700       -8.70800
C         -7.55400        0.79400       -5.89200
C         -7.65900        1.28000       -4.56200
C         -7.59500        2.63300       -4.31300
C         -7.45600        3.54400       -5.32800
C         -7.31500        3.08500       -6.61300
C         -7.37900        1.74200       -6.88400
C         -6.70600       -4.27400       -3.38300
C         -5.42500       -4.67000       -3.71700
C         -5.01400       -5.97100       -3.53400
C         -5.86800       -6.88400       -2.99500
C         -7.15300       -6.52000       -2.67700
C         -7.58600       -5.20600       -2.88200
C         -7.37600       -2.08200       -1.83800
C         -6.27500       -1.49400       -1.21900
C         -6.30500       -1.23100        0.14600
C         -7.38700       -1.57000        0.90800
C         -8.47700       -2.14500        0.30400
C         -8.48400       -2.39700       -1.05500
C          1.65500        2.49300        1.80200
C          0.67100        3.38000        1.69200
C          0.24200        4.16300        2.76800
C          0.69800        4.09900        4.11900
C          1.69100        3.23800        4.19300
C          2.11100        2.68600        3.06500
H        -10.61600       -4.45800       -4.47500
H        -11.30800       -3.22000       -3.84100
H         -9.06200       -3.19100       -7.67900
H         -9.09200       -4.95800       -5.57700
H        -12.83200       -4.67400       -8.93500
H        -12.99200       -3.17100       -9.27100
H        -13.21300       -3.66500       -7.81800
H         -5.93100       -6.85200       -7.49500
H         -5.27600       -6.90200       -6.08600
H         -5.15100       -5.62300       -6.95700
H        -11.69400       -1.66700       -5.19600
H         -9.86900        0.23100       -4.39000
H        -10.19100        1.52000       -8.44800
H        -10.68500        2.61900       -7.46600
H        -11.68500        1.57500       -8.03400
H        -11.82100        0.51100       -0.69600
H        -10.40500        0.30800       -0.11400
H        -11.23200       -0.91900       -0.56400
H         -5.67700       -2.31200       -6.11500
H         -5.29800       -0.81100       -6.01600
H         -5.90700       -0.71200       -3.81200
H         -5.08000       -2.02000       -3.92500
H         -9.49000       -0.89300       -8.42600
H         -9.36800       -0.73900      -10.72900
H         -7.29900       -0.84800      -11.79800
H         -5.35400       -1.11900      -10.51300
H         -5.46300       -1.16400       -8.19900
H         -7.77200        0.67100       -3.84100
H         -7.65100        2.94100       -3.42000
H         -7.45300        4.47600       -5.14100
H         -7.17600        3.70500       -7.32000
H         -7.29600        1.45300       -7.78500
H         -4.82100       -4.03200       -4.07900
H         -4.13400       -6.23100       -3.78300
H         -5.57300       -7.77300       -2.83800
H         -7.75300       -7.16600       -2.32500
H         -8.47800       -4.95600       -2.66900
H         -5.50500       -1.27200       -1.73200
H         -5.56000       -0.80800        0.55700
H         -7.38600       -1.40600        1.84500
H         -9.23600       -2.37600        0.82800
H         -9.25000       -2.78600       -1.46100
H          1.96500        1.87500        1.15700
H         -0.42700        4.80500        2.56000
H          0.34400        4.60000        4.84400
H          2.10700        3.01200        5.01300
