159
C:\Users\Javier\OneDrive - Universitat de Barcelona\Tesi\4 - Contribucions\Treballs\3-PhD\chapter_1\cif\pc2p\QAPJUP.pc2p.pdb
Ru         7.19900        3.29500        6.09000
Re         9.90000       -1.69700       13.82800
Cl         9.13300        0.25400       15.10500
C         10.46000       -3.18000       12.73400
O         10.82600       -4.07600       12.11200
P          5.21000        2.19400        6.22300
C          3.97200        2.36100        4.86700
C          4.15900        3.36400        3.92400
H          4.93900        3.90500        3.96500
C          3.22100        3.59100        2.92200
H          3.36500        4.27300        2.27600
C          2.08200        2.81900        2.87300
H          1.43300        2.97100        2.19500
C          1.88600        1.81900        3.81100
H          1.10100        1.28600        3.77200
C          2.81900        1.59000        4.80300
H          2.67300        0.90500        5.44300
C          5.18100        0.39100        6.53000
C          5.55600       -0.48400        5.51400
H          5.81300       -0.13300        4.67000
C          5.56000       -1.85400        5.71200
H          5.80500       -2.43400        5.00200
C          5.21200       -2.37700        6.92600
H          5.23700       -3.31600        7.06900
C          4.82300       -1.52900        7.94300
H          4.56900       -1.88900        8.78500
C          4.79900       -0.15200        7.74700
H          4.51800        0.41800        8.45300
C          4.27400        2.88200        7.64600
H          3.33400        2.57600        7.61800
H          4.67700        2.57900        8.49700
C          4.33800        4.41100        7.54500
H          4.00100        4.82100        8.38000
H          3.77400        4.72400        6.79300
P          6.09300        4.89400        7.26400
C          5.93700        6.58200        6.56500
C          5.13000        6.80000        5.44100
H          4.62300        6.08200        5.08000
C          5.06600        8.05200        4.85300
H          4.51200        8.19100        4.09300
C          5.80500        9.09600        5.36800
H          5.76400        9.95200        4.95700
C          6.60000        8.90400        6.47400
H          7.09300        9.63100        6.83700
C          6.68000        7.64900        7.06200
H          7.24800        7.51800        7.81100
C          6.72300        5.33300        8.94300
C          8.06000        5.13800        9.23400
H          8.61500        4.68400        8.61000
C          8.60700        5.59900       10.44000
H          9.52900        5.46900       10.62800
C          7.78700        6.25000       11.35300
H          8.15200        6.57000       12.17100
C          6.45600        6.43200       11.08500
H          5.89900        6.86100       11.72100
C          5.91700        5.99300        9.87800
H          4.99700        6.14100        9.69000
C         10.14600       -2.83100       15.34500
O         10.27300       -3.55800       16.23300
C         11.73400       -1.14100       14.06100
O         12.80000       -0.79900       14.26300
C          7.89800        1.64400        8.73500
C          7.55700        2.30500        7.76700
N          9.31900       -0.53900       12.07900
C          8.03000       -0.66100       11.66200
C          7.55300        0.02100       10.56000
H          6.65400       -0.10600       10.28300
C          8.38000        0.89900        9.83900
C          9.69900        1.00300       10.29600
H         10.30900        1.57700        9.84700
C         10.11700        0.28500       11.38400
H         11.02100        0.37600       11.66100
N          7.78800       -2.09200       13.56700
C          7.18300       -1.52300       12.50000
C          5.82300       -1.71300       12.27400
H          5.41300       -1.33800       11.50200
C          5.07100       -2.44100       13.16700
H          4.13700       -2.55300       13.03200
C          5.69800       -3.01000       14.27200
H          5.20200       -3.51200       14.90600
C          7.05200       -2.82500       14.41900
H          7.48800       -3.23600       15.15700
C          8.69500        2.12200        4.87400
C          7.79300        2.71700        3.93400
C          7.90100        4.16000        4.07800
C          8.82600        4.39100        5.09600
C          9.32500        3.15800        5.58400
C          8.98100        0.62100        4.99900
H          8.41400        0.12800        4.36700
H          8.78600        0.32700        5.91300
H          9.92200        0.44900        4.79300
C          7.05800        2.03200        2.84800
H          6.49300        2.67900        2.37800
H          6.49800        1.32300        3.22900
H          7.69800        1.63900        2.21900
C          7.27000        5.09200        3.05400
H          6.75300        5.78600        3.53700
H          6.66500        4.58500        2.48300
H          7.96500        5.51700        2.52700
C          9.38300        5.73800        5.44300
H          8.88700        6.43200        4.96300
H         10.32900        5.77700        5.18700
H          9.30000        5.88700        6.40900
C         10.42300        2.98300        6.61500
H         10.56300        2.02900        6.78500
H         10.16300        3.43000        7.44800
H         11.25300        3.38000        6.27800
C          9.42100       -0.15400       14.90900
O          9.13800        0.71800       15.63000
Cl        10.48800       -3.41800       12.27200
C          9.01900        2.46200        5.14800
C          8.09000        2.77700        4.10100
C          8.78000        4.75100        5.14300
C          9.44300        3.66100        5.76200
C          9.52300        1.06200        5.42500
H          9.03100        0.42300        4.86600
H          9.38400        0.84400        6.37000
H         10.47900        1.00900        5.21600
C          7.44600        1.81400        3.07500
H          6.86900        2.32300        2.47000
H          6.91200        1.14400        3.54800
H          8.15100        1.36800        2.56100
C          7.28000        5.09200        3.10700
H          7.42200        6.01100        3.40700
H          6.32400        4.90500        3.04400
H          7.70100        4.96500        2.22700
C          9.04100        6.19100        5.34600
H          8.41700        6.71800        4.80300
H          9.96100        6.39400        5.07800
H          8.92000        6.41400        6.29400
C         10.53000        3.79300        6.79500
H         10.84100        2.90000        7.05600
H         10.18000        4.26100        7.57900
H         11.27900        4.30000        6.41700
Cl         7.80800       11.29100        9.50900
Cl         7.44600        9.77300       11.97800
C          8.21200        9.73500       10.43400
H          7.89600        8.95000        9.92300
H          9.19200        9.65800       10.54700
Cl        11.26000        3.62100       12.80900
Cl        12.35400        4.42900       10.30900
C         12.61900        4.30200       11.98300
H         12.80600        5.20200       12.35100
H         13.41500        3.73600       12.14200
Cl        10.14800        8.64700       15.24400
Cl        11.01300        7.43300       12.77400
C         10.15400        7.18000       14.33700
H          9.22300        6.89100       14.16500
H         10.60800        6.47100       14.85700
Cl         9.12800        8.49000       14.37100
Cl        11.78400        7.66000       13.71900
C         10.51300        7.67500       14.97700
H         10.27600        6.74600       15.22500
H         10.84900        8.13600       15.78600
Cl         9.46500        7.48100       15.08900
Cl        11.78400        7.66000       13.71900
C         10.34500        8.57700       14.03700
H          9.84200        8.76500       13.20700
H         10.55300        9.43100       14.49400
