37
C:\Users\Javier\OneDrive - Universitat de Barcelona\Tesi\4 - Contribucions\Treballs\3-PhD\chapter_1\cif\pc2p\QAVHEA.pc2p.pdb
Pd         7.87300        3.44100       16.70400
S          9.07700        4.34200       14.94800
S          9.74300        3.54400       18.03400
P          5.89700        3.41900       15.56600
P          6.75000        2.27100       18.29500
N         12.48300        5.23400       14.00400
N         13.26200        4.52500       17.96300
C         11.69100        4.93300       14.75200
C         10.65000        4.51200       15.65900
C         10.92300        4.20100       16.94900
C         12.23200        4.39700       17.49600
C          4.64800        2.49600       16.58500
C          5.37000        1.44900       17.42400
C          5.20300        5.06500       15.20400
C          3.95800        5.49200       15.64100
C          3.49600        6.77000       15.33600
C          4.23700        7.63100       14.58600
C          5.46700        7.22000       14.12500
C          5.94200        5.94700       14.44000
C          5.92400        2.58800       13.94900
C          4.86000        2.77400       13.06200
C          4.90300        2.15900       11.82900
C          5.94400        1.36600       11.46500
C          6.96200        1.15100       12.34400
C          6.96000        1.76100       13.59300
C          6.01400        3.27100       19.60100
C          4.91300        2.82700       20.31400
C          4.42600        3.63700       21.35300
C          4.97800        4.84200       21.65200
C          6.05400        5.28300       20.93100
C          6.57700        4.50600       19.92400
C          7.72200        0.96300       19.10500
C          7.94200        0.97800       20.46600
C          8.76500       -0.01100       21.00500
C          9.36600       -0.95700       20.21700
C          9.12200       -1.00000       18.87700
C          8.30100       -0.02100       18.31500
