110
C:\Users\Javier\OneDrive - Universitat de Barcelona\Tesi\4 - Contribucions\Treballs\3-PhD\chapter_1\cif\pc2p\QEKXAG.pc2p.pdb
Ru         0.24600        0.68400        4.64000
C          0.76300        2.30600        1.51400
C          0.92300        2.07300        0.15000
H          1.36300        1.30600       -0.14100
C          0.43200        2.97900       -0.77200
H          0.56000        2.82900       -1.68200
C         -0.23700        4.09100       -0.35800
H         -0.56400        4.69500       -0.98200
C         -0.43200        4.31900        0.98200
H         -0.90500        5.06800        1.26300
C          0.08000        3.43300        1.90900
H         -0.04000        3.60000        2.81600
C          3.14800        1.95900        3.03100
C          3.82400        2.55800        1.98500
H          3.41300        2.64600        1.15700
C          5.11000        3.02700        2.16800
H          5.56600        3.41900        1.45700
C          5.71700        2.91400        3.39600
H          6.58500        3.23000        3.51700
C          5.05400        2.34800        4.42700
H          5.46500        2.28400        5.26000
C          3.77300        1.86500        4.26100
H          3.32700        1.47400        4.97900
C          2.61600       -1.52900        5.85900
C          3.96300       -1.24300        5.75100
H          4.32200       -1.02900        4.92000
C          4.78500       -1.26900        6.86600
H          5.69100       -1.08500        6.77900
C          4.27200       -1.56100        8.08100
H          4.82300       -1.54600        8.83100
C          2.94100       -1.88300        8.22000
H          2.59800       -2.10500        9.05600
C          2.11200       -1.86900        7.10200
H          1.21300       -2.09000        7.19100
C          0.51600       -2.88500        4.50800
C          1.13900       -4.04200        4.07900
H          2.02900       -4.01100        3.81000
C          0.45900       -5.25000        4.03900
H          0.88300       -6.01900        3.73600
C         -0.84400       -5.29400        4.45600
H         -1.31600       -6.09400        4.41400
C         -1.45300       -4.17500        4.93000
H         -2.32600       -4.22400        5.24500
C         -0.78300       -2.95700        4.94700
H         -1.21200       -2.19400        5.25800
C         -0.69100        2.50800        5.51400
H         -1.13700        3.13700        4.99600
C          0.68200        2.50000        5.82500
H          1.30700        3.13300        5.55400
C          0.94500        1.36800        6.62100
H          1.77600        1.11700        6.95900
C         -0.27300        0.67700        6.82100
H         -0.38900       -0.10200        7.31700
C         -1.26600        1.36800        6.14300
H         -2.16300        1.12600        6.10600
C          1.86300       -0.33500        1.92600
H          1.06000       -0.68700        1.51200
H          2.52000       -0.17400        1.23300
C          2.40700       -1.33600        2.93500
H          3.33300       -1.12600        3.13200
H          2.37200       -2.22800        2.55700
C         -2.25900        1.09400        2.50600
H         -2.10500        1.96100        2.80100
C         -3.23700        0.90100        1.53400
H         -3.48000        0.03500        1.29200
C         -3.84200        1.95600        0.93000
H         -3.65000        2.79800        1.27700
C         -4.74700        1.91800       -0.19000
C         -5.15800        0.73600       -0.80900
H         -4.87000       -0.07400       -0.45100
C         -5.96200        0.71200       -1.91400
H         -6.19400       -0.10300       -2.29800
C         -6.42500        1.86500       -2.45900
C         -6.08000        3.08100       -1.86400
H         -6.41600        3.87400       -2.21500
C         -5.21800        3.11900       -0.73200
H         -4.97200        3.93300       -0.35500
C         -7.58000        0.64600       -4.26400
H         -8.14600        0.83600       -5.01600
H         -8.04200        0.06500       -3.65500
H         -6.77600        0.21800       -4.57000
C         -7.79300        3.10000       -4.06700
H         -8.32500        2.92500       -4.84600
H         -7.08400        3.70600       -4.29100
H         -8.34400        3.49200       -3.38300
N         -7.24200        1.88600       -3.58800
P         -3.51300        5.70400        3.78600
F         -3.66200        5.35400        2.26900
F         -3.32700        4.20700        4.04900
F         -5.07000        5.57800        3.93600
F         -3.72200        7.17300        3.45300
F         -2.01300        5.68700        3.66000
F         -3.49000        6.05300        5.27300
F         -2.58400        6.49800        2.74500
F         -4.32000        5.25300        4.85100
F         -3.38100        7.04700        4.52800
F         -4.69700        6.03400        3.08800
F         -2.17900        5.59300        4.53800
F         -3.56800        4.34400        3.26000
P          1.48100        1.22500        2.79500
P          1.41300       -1.28400        4.49900
S         -1.35400       -0.12400        3.16800
C          1.90700       -0.23900       12.15500
H          1.64000        0.14400       13.01900
Cl         0.44400       -0.68600       11.09300
Cl         2.60100        0.91000       11.12500
Cl         2.70000       -1.58800       12.31600
Cl         3.71000       -0.29600       11.93100
Cl         1.34700        0.52800       10.99600
Cl         1.56900       -1.72300       12.68300
