43
C:\Users\Javier\OneDrive - Universitat de Barcelona\Tesi\4 - Contribucions\Treballs\3-PhD\chapter_1\cif\pc2p\QICMAQ.pc2p.pdb
C          1.11700       12.90400        5.65500
C          1.54500       12.72200        5.91000
C          1.56700       14.24700        6.27300
C          1.08200       14.20900        5.84600
C         -0.41100       13.10000       12.39200
C         -3.64000       12.70700       11.42900
C         -2.24400       15.77400       11.34100
C         -0.92800       10.73900        5.75400
C         -0.81800       10.88200        5.54100
C         -0.36900       10.31500        4.37300
C         -0.14600        9.79900        4.64700
C         -1.50900        9.52800        6.50400
C         -2.02200       10.20300        6.30700
C         -2.16700       11.69200        5.46200
C         -1.37200       11.99500        4.71100
C          1.51100       10.33200        7.60000
C          1.65700       10.58900        7.49300
C          2.25700        9.65800        6.39700
C          2.58800        9.74100        6.66700
C          2.27400       10.99100        8.79000
C          2.79400       11.52500        8.00500
C          0.67400        9.17300        8.19800
C          1.13600        9.80100        8.71700
C          1.65300       15.90000        8.71700
C          1.83600       15.72300        8.31800
C          2.70900       16.76200        7.96700
C          2.39900       16.98500        7.64300
C          2.38900       14.87000        9.58400
C          2.97300       14.66200        8.39600
C          0.86900       16.83200        9.67600
C          1.43800       16.03400        9.80400
C         -0.70000       16.15500        6.65200
C         -0.88600       16.20300        6.80700
C         -0.00300       17.38100        6.05600
C         -0.31600       17.05100        5.60300
C         -1.87100       16.57500        7.55500
C         -1.31300       17.12800        7.94300
C         -1.32200       15.36400        5.46600
C         -2.11600       15.43000        6.29200
Pd        -0.66700       13.04900        8.50600
P          0.30800       11.68600        6.86000
P          0.38900       14.91000        7.52000
Sn        -1.78000       13.69200       10.77500
