107
C:\Users\Javier\OneDrive - Universitat de Barcelona\Tesi\4 - Contribucions\Treballs\3-PhD\chapter_1\cif\pc2p\QOFVEN.pc2p.pdb
Ru        13.28400        4.01000        9.91000
P         14.00200        6.08000        9.17200
C         15.38600        6.94900        9.98300
C         15.99900        6.45900       11.12800
H         15.70400        5.63800       11.50400
C         17.04600        7.16100       11.73400
H         17.45800        6.81800       12.51800
C         17.47900        8.35900       11.19000
H         18.20300        8.82800       11.58900
C         16.85400        8.87500       10.06100
H         17.13800        9.70600        9.70000
C         15.81300        8.17500        9.45700
H         15.39000        8.53200        8.68500
C         14.43600        6.26300        7.41900
C         13.57700        6.83700        6.48000
H         12.74000        7.19300        6.75600
C         13.94400        6.88600        5.13100
H         13.36200        7.28400        4.49500
C         15.15600        6.35800        4.72000
H         15.38600        6.36100        3.79900
C         16.03400        5.82200        5.65400
H         16.87700        5.48600        5.37400
C         15.67800        5.77900        6.99900
H         16.28400        5.41900        7.63700
C         12.61900        7.24200        9.47800
H         12.89600        8.17000        9.27500
H         11.84200        7.01200        8.90600
C         12.25100        7.10500       10.95600
H         11.41800        7.60600       11.14400
H         12.97300        7.48200       11.51900
P         12.01200        5.32200       11.35800
C         12.34000        5.21000       13.14400
C         13.50800        5.75100       13.69200
H         14.08800        6.26400       13.14300
C         13.83200        5.54600       15.03200
H         14.63700        5.90500       15.38600
C         12.97200        4.81300       15.85100
H         13.18800        4.67200       16.76500
C         11.80200        4.29300       15.32300
H         11.21000        3.80500       15.88300
C         11.48300        4.47900       13.97900
H         10.68100        4.10900       13.62700
C         10.20100        5.09100       11.27600
C          9.62600        3.96000       10.70000
H         10.17900        3.29300       10.31200
C          8.23800        3.80400       10.69200
H          7.85200        3.02900       10.30100
C          7.42200        4.77600       11.25100
H          6.47700        4.67000       11.23700
C          7.98800        5.90800       11.83400
H          7.43000        6.57500       12.21600
C          9.36700        6.06100       11.85600
H          9.75000        6.82800       12.26600
C         12.04600        4.12800        8.55400
C         11.20100        4.05300        7.55300
H         10.27000        4.17700        7.69400
I         11.95100        3.65500        5.62300
C         14.63200        2.38100        9.16300
C         15.27300        2.87500       10.35600
C         14.40700        2.65600       11.45300
C         13.21900        2.00300       10.95200
C         13.38300        1.79500        9.55200
C         15.28400        2.26800        7.82400
H         15.77500        1.42200        7.77100
H         15.90500        3.01500        7.70000
H         14.59900        2.29300        7.12400
C         16.70900        3.29800       10.41500
H         16.88600        3.73100       11.27600
H         16.89500        3.92900        9.68900
H         17.28500        2.51100       10.32100
C         14.74100        2.81000       12.89700
H         15.13900        1.97900       13.23000
H         13.92400        3.00600       13.40200
H         15.37900        3.54500       13.00800
C         12.14500        1.40200       11.80100
H         11.34100        1.26200       11.25900
H         11.93900        2.00800       12.54300
H         12.45300        0.54200       12.15700
C         12.49000        0.97300        8.67400
H         12.79700        0.04200        8.67600
H         12.51800        1.32400        7.75900
H         11.57000        1.01400        9.01100
B          8.86900       10.41800       11.05700
F          9.05300       11.13500       12.27800
F          9.45300       11.17600       10.05000
F          7.53200       10.26300       10.83900
F          9.52300        9.20400       11.16400
C          6.53700        3.77400        7.10600
H          5.67600        3.32000        7.22300
H          6.39800        4.61800        6.62600
H          6.93100        3.95900        7.98400
C          7.47100        2.88900        6.30700
H          7.06000        2.70800        5.42500
H          8.31600        3.38100        6.14900
C          7.79700        1.57400        6.96600
H          6.94900        1.09800        7.14900
H          8.22700        1.75900        7.83800
C          9.95800       -1.54600        6.03400
H         10.81900       -1.09100        5.91700
H         10.09700       -2.38900        6.51300
H          9.56300       -1.73000        5.15600
C          9.02400       -0.66000        6.83300
H          9.43400       -0.47900        7.71400
H          8.17900       -1.15200        6.99000
C          8.69800        0.65500        6.17400
H          9.54600        1.13100        5.99000
H          8.26800        0.47000        5.30200
