81
C:\Users\Javier\OneDrive - Universitat de Barcelona\Tesi\4 - Contribucions\Treballs\3-PhD\chapter_1\cif\pc2p\QOFVOX.pc2p.pdb
Ru         2.70800        9.00000        3.18700
P          3.59300       11.00400        3.72100
C          5.35800       11.38400        3.37500
C          6.16100       10.41800        2.79600
H          5.78500        9.58100        2.55100
C          7.51900       10.65900        2.56900
H          8.06000        9.99300        2.16100
C          8.06300       11.86600        2.94000
H          8.98500       12.03400        2.78200
C          7.28900       12.83400        3.54000
H          7.67800       13.66000        3.80100
C          5.92800       12.59800        3.76300
H          5.39100       13.26400        4.17900
C          2.74900       12.49100        3.07900
C          1.49600       12.87800        3.57800
H          1.11000       12.39600        4.29900
C          0.81500       13.95300        3.03300
H         -0.02400       14.21400        3.39600
C          1.35200       14.65200        1.95800
H          0.88200       15.38900        1.58600
C          2.58000       14.26700        1.43100
H          2.94500       14.73100        0.68700
C          3.27200       13.20100        1.99700
H          4.11700       12.95200        1.64000
C          3.57300       11.15200        5.55300
H          4.07800       11.95200        5.84200
H          2.64200       11.22600        5.88600
C          4.23700        9.87300        6.08500
H          4.08800        9.80000        7.06200
H          5.21200        9.90900        5.92100
P          3.51100        8.39300        5.22700
C          4.85000        7.14500        5.28700
C          6.15400        7.46800        4.88000
H          6.37600        8.37200        4.68800
C          7.12000        6.48100        4.75600
H          8.00200        6.71400        4.48900
C          6.81000        5.15800        5.01800
H          7.46900        4.48400        4.89900
C          5.54400        4.81500        5.45100
H          5.33600        3.91000        5.65000
C          4.56900        5.80500        5.59700
H          3.70500        5.56800        5.91200
C          2.32200        7.71000        6.45300
C          2.52500        7.80700        7.82400
H          3.32300        8.20800        8.15000
C          1.58100        7.32600        8.73100
H          1.72400        7.42000        9.66500
C          0.43200        6.71100        8.26100
H         -0.21700        6.38600        8.87400
C          0.22900        6.57200        6.89600
H         -0.54700        6.13100        6.57300
C          1.16300        7.08000        6.00400
H          1.01000        6.99600        5.06900
C          1.11800        9.62700        4.23800
C          0.14100        9.93300        4.85700
I         -1.35100       10.20700        6.19300
C          1.78200        9.04800        1.18100
C          3.20300        8.96100        1.00700
C          3.65600        7.72800        1.57000
C          2.50500        7.04200        2.06800
C          1.35300        7.83700        1.81600
C          0.88300       10.12400        0.65300
H          0.51100        9.84300       -0.20900
H          1.39800       10.95000        0.53300
H          0.15500       10.28300        1.28800
C          4.01300        9.92900        0.19800
H          4.95900        9.84500        0.44000
H          3.70900       10.84300        0.37800
H          3.90200        9.72900       -0.75500
C          5.01700        7.09300        1.45700
H          5.01500        6.44500        0.72300
H          5.23400        6.63400        2.29700
H          5.68700        7.78400        1.28100
C          2.51200        5.62500        2.57000
H          1.68600        5.45000        3.06600
H          3.28300        5.49100        3.16200
H          2.57400        5.01000        1.81100
C         -0.07600        7.47600        2.09900
H         -0.52400        7.23800        1.26000
H         -0.53200        8.24000        2.50700
H         -0.10500        6.71200        2.71200
