201
C:\Users\Javier\OneDrive - Universitat de Barcelona\Tesi\4 - Contribucions\Treballs\3-PhD\chapter_1\cif\pc2p\QOFVIR.pc2p.pdb
Ru         4.95000        1.68000       14.85300
Ru        -0.31300        1.91200        7.07400
I          9.90600        0.11300       12.31400
I          2.56000        4.52000        3.00000
P          4.84000       -0.18600       13.52000
C          3.24200       -1.01600       13.24000
C          2.71300       -1.24700       12.00200
H          3.21200       -1.00900       11.22900
C          1.46300       -1.81800       11.85200
H          1.12000       -1.97100       10.97900
C          0.73200       -2.16100       12.91300
H         -0.12800       -2.54500       12.79100
C          1.21600       -1.96000       14.18000
H          0.69500       -2.19400       14.94000
C          2.48300       -1.40600       14.33200
H          2.83700       -1.29500       15.20700
C          5.40100        0.02900       11.79200
C          6.07800       -0.94000       11.06800
H          6.35200       -1.74500       11.49200
C          6.35500       -0.73100        9.71400
H          6.84000       -1.38700        9.23000
C          5.93500        0.41000        9.07300
H          6.10000        0.52700        8.14500
C          5.27500        1.37400        9.79000
H          4.99000        2.16900        9.35300
C          5.01700        1.21000       11.13900
H          4.57800        1.89800       11.62500
C          5.91400       -1.51200       14.22800
H          5.37700       -2.09800       14.82000
H          6.28500       -2.06900       13.49600
C          7.05400       -0.88200       15.02200
H          7.69800       -0.44100       14.41300
H          7.53500       -1.57300       15.54500
P          6.28500        0.35000       16.14100
C          5.61600       -0.77300       17.40200
C          4.23500       -0.96300       17.52700
H          3.62900       -0.42300       17.03300
C          3.76400       -1.95200       18.38000
H          2.82800       -2.09500       18.45400
C          4.61700       -2.71400       19.11100
H          4.27700       -3.39100       19.68700
C          5.97400       -2.50800       19.01700
H          6.56800       -3.03000       19.54300
C          6.47300       -1.56100       18.17400
H          7.41400       -1.43500       18.11200
C          7.61000        1.22700       17.02600
C          8.70000        1.72400       16.34600
H          8.81700        1.51100       15.42800
C          9.63800        2.53700       16.99600
H         10.40000        2.86700       16.53400
C          9.42200        2.85000       18.33800
H         10.03500        3.42300       18.78400
C          8.38700        2.37100       19.00300
H          8.27500        2.58700       19.92200
C          7.46300        1.55600       18.37200
H          6.72200        1.21900       18.86100
C          6.52300        2.09500       13.85000
C          7.48200        2.48100       13.15900
C          8.54400        2.82100       12.36300
C          9.18300        4.06300       12.35300
C          8.69400        5.09100       13.20000
N          8.30400        5.91500       13.88100
C         10.32400        4.33600       11.55900
N         11.26100        4.56700       10.91700
C          9.02300        1.78200       11.42200
C          8.85500        1.87800       10.09500
C          9.29100        0.85800        9.17200
N          9.62800        0.06600        8.43300
C          8.16800        3.00000        9.52200
N          7.63400        3.88600        9.04900
C          4.10200        3.69900       14.36400
C          3.02000        2.77600       14.41400
C          2.92900        2.27500       15.75800
C          3.96600        2.89500       16.51000
C          4.70900        3.75700       15.65900
C          4.47600        4.56600       13.19400
H          4.15000        4.15600       12.36700
H          5.45100        4.65600       13.15300
H          4.07000        5.45200       13.30200
C          2.02100        2.49600       13.34700
H          1.20500        3.00800       13.52100
H          1.81100        1.54000       13.33900
H          2.39000        2.75700       12.47700
C          1.78000        1.50000       16.31400
H          1.51700        0.80200       15.67900
H          1.02300        2.10300       16.46800
H          2.04500        1.08800       17.16400
C          4.14000        2.80500       17.99300
H          5.07000        3.00900       18.22600
H          3.92100        1.89900       18.29300
H          3.54600        3.44900       18.43200
C          5.86100        4.62800       16.05300
H          6.12400        4.42400       16.97400
H          5.59500        5.56900       15.98900
H          6.61700        4.46200       15.45100
P          0.43100        4.03000        7.54600
C          0.27700        4.71300        9.23900
C          1.37100        5.02600       10.03100
H          2.24900        4.90400        9.68800
C          1.19900        5.51300       11.31600
H          1.95800        5.71900       11.84700
C         -0.05900        5.70100       11.82400
H         -0.17100        6.04400       12.70400
C         -1.16600        5.39100       11.05800
H         -2.04000        5.51900       11.40800
C         -0.99800        4.89200        9.77500
H         -1.76000        4.67100        9.25400
C          2.18100        4.43200        7.17900
C          2.60000        5.74400        6.95800
H          1.96200        6.44900        6.94000
C          3.94900        6.02200        6.76400
H          4.22500        6.91300        6.59800
C          4.88700        5.01500        6.81300
H          5.80600        5.21300        6.68400
C          4.48300        3.72100        7.04900
H          5.12800        3.02600        7.09400
C          3.14300        3.43000        7.21800
H          2.87500        2.52900        7.36500
C         -0.53900        5.26700        6.58100
H         -1.36000        5.51100        7.07900
H         -0.00100        6.08600        6.44900
C         -0.91400        4.67300        5.23600
H         -0.11300        4.63100        4.65300
H         -1.59000        5.24300        4.79400
P         -1.59000        2.97900        5.48500
C         -3.36600        3.29800        5.80200
C         -3.75100        3.68200        7.06700
H         -3.10500        3.71800        7.76300
C         -5.07900        4.02000        7.34400
H         -5.32300        4.31700        8.21200
C         -6.02100        3.92300        6.36400
H         -6.92700        4.14500        6.54800
C         -5.66100        3.50600        5.12500
H         -6.32400        3.41500        4.45000
C         -4.32700        3.20900        4.82400
H         -4.08700        2.94700        3.94200
C         -1.58500        2.30000        3.79700
C         -1.58200        0.93100        3.62100
H         -1.58000        0.36300        4.38100
C         -1.58100        0.37300        2.35200
H         -1.58400       -0.57100        2.24900
C         -1.57500        1.18300        1.25000
H         -1.57300        0.79900        0.38000
C         -1.57400        2.52500        1.39700
H         -1.56900        3.07900        0.62500
C         -1.57800        3.11100        2.66100
H         -1.57800        4.05700        2.74800
C          0.96100        1.79600        5.63800
C          1.72800        1.57900        4.69800
C          2.62000        1.56000        3.64400
C          2.75500        0.53800        2.71800
C          1.94200       -0.62500        2.80600
N          1.30200       -1.57300        2.85500
C          3.67200        0.62200        1.62000
N          4.39600        0.68100        0.74900
C          3.50300        2.74100        3.52500
C          4.79900        2.69800        3.85000
C          5.38400        1.48800        4.36500
N          5.83100        0.53100        4.82000
C          5.67700        3.84500        3.74000
N          6.39600        4.71800        3.64300
C          0.53900        0.16000        8.18600
C         -0.10400        1.00100        9.13500
C         -1.49600        1.04100        8.83200
C         -1.70600        0.22700        7.68500
C         -0.46200       -0.32000        7.28000
C          1.97300       -0.27800        8.18100
H          2.03900       -1.18400        8.54700
H          2.50400        0.33600        8.73100
H          2.31300       -0.26900        7.26200
C          0.54100        1.56500       10.35800
H          0.51400        0.89900       11.07800
H          0.06000        2.36900       10.64100
H          1.47300        1.79300       10.16000
C         -2.56500        1.59400        9.73300
H         -3.35600        1.82100        9.20000
H         -2.23200        2.39900       10.18200
H         -2.80800        0.92200       10.40300
C         -3.04300       -0.12200        7.11200
H         -3.39200       -0.92100        7.56100
H         -2.95000       -0.30000        6.15200
H         -3.66200        0.62600        7.24800
C         -0.22700       -1.37400        6.23500
H          0.51200       -1.09800        5.65300
H         -1.03800       -1.49000        5.69800
H          0.00200       -2.22300        6.67000
C         -2.14800        2.88700       13.59200
H         -1.74100        2.16400       13.06900
H         -1.44500        3.48500       13.92300
H         -2.76500        3.39300       13.02400
C         -2.86400        2.33200       14.70100
H         -3.82900        2.21800       14.51100
H         -2.73800        2.85100       15.53300
O         -2.13500        1.06000       14.71100
C         -2.67700        0.57200       15.85700
H         -3.66300        0.54300       15.77100
H         -2.45100        1.17000       16.61200
C         -2.16700       -0.79000       16.13500
H         -2.40000       -1.38400       15.39300
H         -2.57100       -1.12700       16.96300
H         -1.19400       -0.76000       16.23700
