210
C:\Users\Javier\OneDrive - Universitat de Barcelona\Tesi\4 - Contribucions\Treballs\3-PhD\chapter_1\cif\pc2p\QOLSIU.pc2p.pdb
Ru         4.86000        1.66200       14.90200
Ru        -0.27000        1.98500        7.04300
I          9.95500        0.17700       12.53000
I          2.66400        4.57900        2.85300
P          4.82500       -0.20000       13.56100
C          3.22900       -1.04600       13.23700
C          2.72600       -1.24700       11.95400
H          3.24400       -0.99700       11.20000
C          1.47000       -1.80800       11.77300
H          1.14500       -1.95600       10.89200
C          0.69200       -2.15100       12.84300
H         -0.17800       -2.50400       12.70600
C          1.17700       -1.98400       14.12600
H          0.64900       -2.23600       14.87400
C          2.44300       -1.44600       14.31300
H          2.78000       -1.34900       15.19600
C          5.42100        0.03100       11.84700
C          6.09900       -0.95400       11.12500
H          6.36800       -1.75900       11.55400
C          6.37800       -0.75400        9.76800
H          6.85500       -1.41900        9.28500
C          5.97200        0.38700        9.12200
H          6.13900        0.50000        8.19300
C          5.32100        1.37400        9.83900
H          5.04800        2.17200        9.40100
C          5.05800        1.20900       11.19600
H          4.62700        1.90400       11.68200
C          5.89500       -1.51900       14.30200
H          5.34900       -2.10700       14.88000
H          6.29100       -2.07200       13.58300
C          7.01200       -0.86300       15.13300
H          7.66700       -0.41700       14.53900
H          7.48700       -1.54400       15.67200
P          6.19600        0.36500       16.22500
C          5.52300       -0.74400       17.50500
C          4.14900       -0.96000       17.60100
H          3.54800       -0.45200       17.07000
C          3.66100       -1.93100       18.48500
H          2.72700       -2.09900       18.53400
C          4.51900       -2.63800       19.27500
H          4.18000       -3.29300       19.87300
C          5.88000       -2.40300       19.21000
H          6.47000       -2.88100       19.78100
C          6.38800       -1.48000       18.32300
H          7.32700       -1.34200       18.26500
C          7.50200        1.27700       17.11300
C          8.62000        1.75700       16.43800
H          8.77400        1.50400       15.53600
C          9.52000        2.61700       17.08700
H         10.27500        2.95500       16.62000
C          9.31200        2.96800       18.39600
H          9.92400        3.54900       18.83100
C          8.23200        2.48900       19.08000
H          8.09800        2.73400       19.98800
C          7.32800        1.63800       18.44500
H          6.58300        1.30100       18.92900
C          6.46400        2.11300       13.94500
C          7.45100        2.51800       13.30200
C          8.54500        2.85800       12.54500
C          9.20600        4.09300       12.57900
C          8.71900        5.10700       13.44900
N          8.33900        5.91300       14.17600
C         10.35400        4.37200       11.79300
N         11.29200        4.58000       11.14900
C          9.04900        1.81000       11.61600
C          8.88300        1.90400       10.28200
C          9.33800        0.87300        9.37000
N          9.68000        0.08200        8.63400
C          8.20500        3.02100        9.69400
N          7.67500        3.91500        9.21900
C          3.99100        3.67200       14.39200
C          2.92600        2.72800       14.39300
C          2.78500        2.20100       15.72700
C          3.78600        2.84300       16.52700
C          4.54200        3.72300       15.71200
C          4.42400        4.55300       13.25000
H          4.09700        4.17700       12.40600
H          5.40200        4.60300       13.23000
H          4.05300        5.45100       13.37300
C          1.96700        2.44700       13.27700
H          1.14700        2.96700       13.41300
H          1.75000        1.49200       13.26500
H          2.37700        2.69900       12.42300
C          1.61400        1.39300       16.20500
H          1.78400        1.07900       17.11700
H          1.48600        0.62400       15.61100
H          0.80700        1.94900       16.19500
C          3.90500        2.73800       18.02400
H          4.83400        2.90800       18.29000
H          3.64300        1.84000       18.31000
H          3.31800        3.40100       18.44500
C          5.66100        4.63200       16.15600
H          5.36400        5.56500       16.10400
H          6.43800        4.50300       15.57300
H          5.90700        4.41800       17.08000
P          0.49500        4.09600        7.53600
C          0.35200        4.75000        9.24000
C          1.46700        5.07800       10.02000
H          2.34100        4.98200        9.66200
C          1.29500        5.54400       11.32100
H          2.05600        5.77500       11.84000
C          0.04400        5.67500       11.86500
H         -0.05700        5.98700       12.75600
C         -1.07800        5.35300       11.11300
H         -1.94600        5.44500       11.48700
C         -0.92200        4.89700        9.81300
H         -1.69100        4.68000        9.30100
C          2.25100        4.47900        7.16700
C          2.68900        5.79200        6.92300
H          2.05700        6.49900        6.86500
C          4.05000        6.06100        6.76400
H          4.33700        6.95100        6.59600
C          4.97600        5.05200        6.84900
H          5.90000        5.24200        6.74600
C          4.55600        3.75000        7.08700
H          5.19500        3.05100        7.15400
C          3.20300        3.46700        7.22900
H          2.92400        2.57000        7.37000
C         -0.46800        5.35400        6.58400
H         -1.29100        5.59400        7.08000
H          0.07400        6.17400        6.46500
C         -0.83600        4.77400        5.21900
H         -0.03200        4.72400        4.64500
H         -1.50200        5.35400        4.77300
P         -1.53900        3.08400        5.46700
C         -3.31000        3.41400        5.81400
C         -3.67400        3.75000        7.11200
H         -3.01700        3.75200        7.79800
C         -4.99000        4.08300        7.42000
H         -5.22300        4.33400        8.30700
C         -5.95300        4.05000        6.44000
H         -6.85400        4.26400        6.65000
C         -5.60800        3.70600        5.15600
H         -6.27500        3.67900        4.48100
C         -4.29300        3.39800        4.83500
H         -4.06600        3.17600        3.93900
C         -1.56200        2.41400        3.76600
C         -1.65300        1.04900        3.58600
H         -1.71000        0.48500        4.34800
C         -1.66100        0.47700        2.31400
H         -1.74700       -0.46300        2.21000
C         -1.54400        1.29400        1.20600
H         -1.53900        0.91400        0.33400
C         -1.43300        2.65300        1.36100
H         -1.34400        3.20900        0.59500
C         -1.45000        3.22500        2.63300
H         -1.38800        4.16800        2.73100
C          1.00400        1.87300        5.60000
C          1.76000        1.65000        4.64500
C          2.63700        1.62900        3.58100
C          2.73600        0.62700        2.62800
C          1.90400       -0.52900        2.70300
N          1.24300       -1.46700        2.74700
C          3.63700        0.72500        1.51900
N          4.34800        0.80300        0.63300
C          3.55300        2.79200        3.47600
C          4.83400        2.74100        3.87100
C          5.36100        1.52400        4.42800
N          5.76100        0.57400        4.91400
C          5.74300        3.86000        3.81300
N          6.48800        4.72900        3.76300
C          0.58700        0.20500        8.10700
C         -0.03100        1.03600        9.08500
C         -1.43800        1.09300        8.80800
C         -1.68100        0.29700        7.65100
C         -0.43600       -0.26500        7.21700
C          2.02100       -0.24300        8.08700
H          2.08600       -1.15100        8.44900
H          2.56100        0.36500        8.63300
H          2.35400       -0.23600        7.16500
C          0.64600        1.58400       10.31000
H          0.63600        0.90700       11.01800
H          0.17000        2.38400       10.61700
H          1.57300        1.81700       10.09400
C         -2.50100        1.63000        9.73000
H         -3.28200        1.90200        9.20300
H         -2.15000        2.40500       10.21700
H         -2.76300        0.93500       10.36800
C         -3.03600       -0.04500        7.11800
H         -3.43900       -0.74000        7.67500
H         -2.95100       -0.37000        6.19800
H         -3.60300        0.75400        7.13100
C         -0.22200       -1.29100        6.14100
H          0.54400       -1.03200        5.58800
H         -1.02400       -1.34900        5.58100
H         -0.04800       -2.16400        6.55300
C         -2.04300        2.22500       13.74400
H         -1.86400        2.85500       13.05500
C         -2.49800        2.63300       14.91600
H         -2.80400        3.52600       15.02300
C         -2.52500        1.76700       15.96900
H         -2.68200        2.07700       16.85300
C         -2.32400        0.45800       15.71900
H         -2.35000       -0.14900       16.45000
C         -2.09200       -0.03100       14.50900
H         -2.11000       -0.96500       14.33600
C         -1.82600        0.87200       13.52400
H         -1.49200        0.57600       12.68500
C         -1.81100        1.70000       13.55300
H         -1.47900        1.87300       12.68000
C         -2.08600        2.73100       14.44000
H         -1.87800        3.63000       14.21000
C         -2.63500        2.45900       15.59600
H         -2.83700        3.18700       16.17100
C         -2.93900        1.19800       16.03800
H         -3.37400        1.09800       16.87700
C         -2.64500        0.11600       15.33200
H         -2.80800       -0.76100       15.66000
C         -2.04900        0.35800       14.01000
H         -1.82000       -0.37800       13.45500
