150
C:\Users\Javier\OneDrive - Universitat de Barcelona\Tesi\4 - Contribucions\Treballs\3-PhD\chapter_1\cif\pc2p\QUCDIE.pc2p.pdb
Ru         6.35200        7.72600        3.69900
Cl         8.23100        6.18100        3.18900
P          4.65800        9.17600        4.11300
P          7.53100        9.06300        5.17300
N          5.64100        6.13800        4.82500
N          5.77500        5.72100        6.08400
N          5.16900        4.52000        6.13200
N          5.34100        6.60800        2.29800
N          6.68800        8.79500        1.96900
N          7.25800        9.94900        1.68800
N          7.01200       10.16800        0.39200
C          8.31600        8.36700        6.66200
C          8.75400        7.03900        6.63400
H          8.58700        6.51000        5.88800
C          9.43900        6.51300        7.72300
H          9.73800        5.63300        7.69800
C          9.67900        7.28700        8.84200
H         10.12800        6.92300        9.57100
C          9.25300        8.60400        8.87700
H          9.41800        9.12400        9.63000
C          8.57500        9.15300        7.78200
H          8.29700       10.04000        7.80200
C          8.92100        9.98800        4.43700
C          9.81000        9.29300        3.62100
H          9.66200        8.39000        3.45600
C         10.91700        9.91800        3.04600
H         11.50400        9.43100        2.51500
C         11.13600       11.25500        3.27200
H         11.88000       11.68000        2.90900
C         10.23300       11.95900        4.04500
H         10.35800       12.87100        4.17400
C          9.13700       11.32900        4.63400
H          8.55100       11.82000        5.16200
C          6.39500       10.34900        5.83800
H          5.92900       10.00500        6.61600
H          6.90300       11.12900        6.10800
C          5.38300       10.73600        4.75600
H          5.82400       11.22300        4.04200
H          4.69000       11.30100        5.13200
C          3.37600        8.73100        5.34000
C          3.76000        8.08900        6.52200
H          4.65900        7.90400        6.67200
C          2.82500        7.72400        7.46400
H          3.10100        7.30200        8.24600
C          1.48100        7.97700        7.25900
H          0.84700        7.71700        7.88900
C          1.09400        8.63200        6.08500
H          0.19300        8.80600        5.93300
C          2.03100        9.02400        5.14600
H          1.76000        9.48400        4.38400
C          3.69900        9.62100        2.61900
C          2.89800        8.62800        2.04100
H          2.80600        7.81100        2.47300
C          2.24300        8.83900        0.83700
H          1.71400        8.17000        0.46600
C          2.38500       10.05900        0.19200
H          1.96900       10.20700       -0.62500
C          3.14700       11.05500        0.76700
H          3.21800       11.88000        0.34300
C          3.81200       10.84600        1.97100
H          4.33000       11.52400        2.34200
C          7.50100       11.43400       -0.19400
H          7.41900       11.39400       -1.16000
H          8.43800       11.54900        0.02300
C          6.86500       13.05400        1.63800
H          7.49200       12.64200        2.18700
C          6.10300       14.08400        2.14100
H          6.22500       14.36500        3.01800
C          5.15000       14.70900        1.33500
H          4.59700       15.37000        1.68500
C          5.04000       14.32900        0.01300
H          4.45600       14.78300       -0.55100
C          5.80200       13.27000       -0.48200
H          5.69500       13.00100       -1.36600
C          6.71500       12.61500        0.32700
C          6.29400        9.17600       -0.16800
H          6.01000        9.11100       -1.05200
C          6.07300        8.28100        0.84700
C          5.35000        7.01300        1.00200
C          4.71800        6.25000        0.02000
H          4.71600        6.52400       -0.86800
C          4.09200        5.06500        0.40700
H          3.65000        4.54700       -0.22700
C          4.12800        4.65200        1.75100
H          3.72000        3.85900        2.01600
C          4.77800        5.44500        2.66000
C          4.96000        5.19800        4.08300
C          4.65500        4.15300        4.93900
H          4.19600        3.37000        4.73700
C          5.12300        3.78900        7.39600
H          5.95100        3.94000        7.87700
H          5.06000        2.83900        7.20700
C          3.95900        4.19400        8.28000
C          2.70500        4.26300        7.81200
H          2.53600        4.07200        6.91800
C          1.63700        4.62200        8.66200
H          0.77200        4.69600        8.32700
C          1.88500        4.85800        9.96700
H          1.18200        5.08900       10.53100
C          3.15300        4.76100       10.47900
H          3.30500        4.90800       11.38500
C          4.21800        4.44100        9.62900
H          5.08600        4.39400        9.95900
Cl         4.79600        0.69900        5.61500
O          7.03800        1.85200        3.49700
C          8.09800        2.39200        3.99800
C          8.18900        3.03200        5.34200
H          7.65600        3.83100        5.35200
H          9.10300        3.25500        5.52900
H          7.86500        2.42300        6.00900
C          9.26700        2.61200        3.11700
H          9.22700        2.00300        2.37500
H         10.07500        2.45900        3.61200
H          9.25700        3.51400        2.79100
O         12.88500        3.71600        3.32600
H         13.09200        3.20100        3.93000
C         12.11900        5.87200        2.74900
H         12.73600        5.83900        2.01400
H         12.03500        6.77700        3.05700
H         11.26100        5.55100        2.46000
C         12.62800        5.00600        3.86900
H         13.46800        5.38100        4.20500
C         11.62600        4.94300        5.00800
H         10.78500        4.62000        4.67700
H         11.50800        5.82200        5.37800
H         11.95200        4.35100        5.68900
O          1.86900        1.69800        5.19300
H          2.62400        1.42400        5.02400
C          1.13500        0.68800        5.77300
H          1.71600       -0.00200        6.15700
C          0.22600        1.26800        6.80100
H          0.74800        1.68700        7.48900
H         -0.31000        0.57100        7.18500
H         -0.34600        1.92100        6.39000
C          0.48100        0.20700        4.50100
H          0.00200        0.93300        4.09400
H         -0.12900       -0.50500        4.70400
H          1.15400       -0.11100        3.89500
O          7.76200       12.65600        8.28700
H          8.05900       13.34300        7.95400
C          5.35100       12.73000        8.72100
H          5.06900       13.48500        8.19900
H          4.73700       12.59700        9.44800
H          5.36900       11.94700        8.16900
C          6.75800       12.99400        9.28300
H          6.89100       12.41000       10.05800
C          6.94700       14.44300        9.74200
H          7.69300       14.49400       10.34500
H          6.15300       14.74300       10.19200
H          7.11300       15.00200        8.98000
