101
C:\Users\Javier\OneDrive - Universitat de Barcelona\Tesi\4 - Contribucions\Treballs\3-PhD\chapter_1\cif\pc2p\QUMMIW.pc2p.pdb
Pd         5.95700        5.79400        5.09200
P          6.31600        4.93800        7.11000
P          3.69300        5.67900        5.61300
C          6.77300        7.09600        2.69300
O          6.76800        7.81200        1.68100
O          5.69200        6.75500        3.29000
C          8.05300        6.58200        3.26100
H          8.43900        5.93100        2.62200
H          8.68800        7.33800        3.33200
C          7.95700        5.92900        4.58500
H          8.44400        6.46200        5.26300
H          8.36100        5.02600        4.54800
C          4.70100        4.73800        7.98000
H          4.75900        3.97100        8.60200
H          4.51700        5.55100        8.51500
C          3.55300        4.50700        7.00100
H          2.68800        4.63700        7.46300
H          3.58500        3.57800        6.66000
C          7.30400        6.07500        8.16200
H          8.21100        6.12700        7.74700
C          6.73800        7.48900        8.13500
H          5.83700        7.49100        8.54700
H          6.64500        7.78600        7.19400
C          7.64600        8.46000        8.88700
H          8.50900        8.53900        8.40900
H          7.22400        9.35600        8.90500
C          7.90100        7.99400       10.31600
H          8.55200        8.60100       10.74900
H          7.05800        8.03300       10.83300
C          8.44300        6.57800       10.33300
H          8.55100        6.28200       11.27200
H          9.33300        6.56200        9.90300
C          7.51700        5.61700        9.60900
H          6.64600        5.57700       10.07600
H          7.91300        4.70900        9.61400
C          7.09400        3.29200        7.33500
H          6.99500        3.06400        8.30400
C          8.58800        3.24400        7.03200
H          8.73800        3.44600        6.07500
H          9.05700        3.93100        7.57000
C          9.15600        1.87300        7.35700
H          9.06900        1.70100        8.32800
H         10.12000        1.85300        7.12800
C          8.43100        0.78400        6.58400
H          8.59500        0.90300        5.61600
H          8.79100       -0.10100        6.84800
C          6.94100        0.82000        6.85000
H          6.76900        0.58500        7.79500
H          6.48900        0.14700        6.28100
C          6.35800        2.19900        6.55800
H          5.40100        2.20900        6.80600
H          6.42500        2.38600        5.58900
C          3.02700        7.25400        6.27000
H          3.52600        7.43600        7.11700
C          3.34500        8.42000        5.33100
H          4.31400        8.42000        5.12500
H          2.85100        8.30100        4.48100
C          2.96000        9.75700        5.95400
H          3.52100        9.91700        6.75500
H          3.13800       10.48400        5.30700
C          1.49800        9.78400        6.35400
H          0.93500        9.74100        5.54200
H          1.30000       10.63400        6.82100
C          1.16200        8.60800        7.27200
H          1.64000        8.71600        8.13200
H          0.19000        8.61100        7.46300
C          1.55100        7.27400        6.63700
H          1.35900        6.53900        7.27300
H          1.00600        7.12500        5.82400
C          2.57200        5.07300        4.28100
H          2.23500        5.87600        3.79000
C          3.37400        4.23800        3.28600
H          4.14300        4.77100        2.95500
H          3.73400        3.43900        3.74500
C          2.52600        3.80000        2.10500
H          2.25600        4.59600        1.58300
H          3.06700        3.21600        1.51400
C          1.29500        3.05200        2.55000
H          1.56300        2.19300        2.96500
H          0.73100        2.84700        1.76000
C          0.49100        3.86600        3.54500
H         -0.28100        3.33000        3.86400
H          0.13700        4.67600        3.10000
C          1.35200        4.27500        4.73700
H          1.64700        3.46600        5.22300
H          0.81100        4.82500        5.36000
C         12.36600       -0.10600        4.38900
H         13.27600       -0.48100        4.50600
H         11.71000       -0.82200        4.58500
C         12.17800        0.96100        5.26800
H         13.01800        1.15800        5.75000
H         11.47900        0.73500        5.93300
C         11.77500        2.08800        4.50000
H         10.85500        2.35900        4.74300
H         12.38300        2.85100        4.66600
C         11.82900        1.71400        3.16600
H         12.49000        2.27100        2.68500
H         10.94400        1.84700        2.74300
C         12.20600        0.32800        3.09100
H         11.50100       -0.19800        2.63700
H         13.05100        0.22700        2.58700
