140
C:\Users\Javier\OneDrive - Universitat de Barcelona\Tesi\4 - Contribucions\Treballs\3-PhD\chapter_1\cif\pc2p\QUMMAO.pc2p.pdb
Pd         8.71200        9.02900       13.91200
P          9.53900        7.29200       15.17300
P         10.10200        8.39300       12.15900
C          7.54200       10.82000       13.77200
H          8.03900       11.66800       13.95500
C          7.20700       10.05600       14.91900
H          6.31200        9.63300       14.91900
H          7.45400       10.44900       15.79500
O          7.01600       11.71500       11.67500
H          6.51400       11.50300       10.83600
C          6.73900       10.83200       12.57900
O          5.78400       10.00400       12.42300
C         10.95500        6.60800       14.18700
H         11.78700        7.07200       14.45700
H         11.06200        5.64700       14.40200
C         10.76700        6.76300       12.67000
H         10.15200        6.05500       12.35100
H         11.64100        6.62200       12.22600
C          8.44100        5.82200       15.54600
C          7.06600        6.31400       16.04200
H          6.71500        6.98400       15.41900
H          7.16300        6.71300       16.93100
H          6.44700        5.55600       16.09100
C          9.01000        4.78400       16.52700
H          9.88600        4.48300       16.20800
H          8.40100        4.01900       16.58200
H          9.10500        5.19100       17.41200
C          8.19200        5.10200       14.21200
H          7.81300        5.73200       13.56600
H          7.56800        4.36000       14.35100
H          9.04200        4.75300       13.86600
C         10.36600        7.85200       16.77000
C         11.42700        6.90100       17.35000
H         12.12300        6.73800       16.68000
H         11.00500        6.05200       17.59700
H         11.83000        7.30800       18.14600
C          9.28400        8.13500       17.82300
H          8.61000        8.73700       17.44400
H          9.69500        8.55400       18.60700
H          8.85800        7.29300       18.08600
C         11.04100        9.18700       16.45900
H         11.74600        9.04900       15.79100
H         11.43700        9.55300       17.27800
H         10.37700        9.81600       16.10800
C          9.17100        8.00800       10.58800
C          7.81900        7.37800       11.03200
H          7.99100        6.54200       11.51300
H          7.27000        7.19400       10.24300
H          7.34600        8.00200       11.62100
C          9.85900        7.01600        9.63000
H         10.07400        6.19000       10.11300
H         10.68400        7.41600        9.28100
H          9.25700        6.81000        8.88400
C          8.83000        9.30500        9.83200
H          8.40600        9.94100       10.44700
H          8.21600        9.10400        9.09600
H          9.65200        9.70000        9.47300
C         11.61400        9.44400       11.74900
C         12.59700        9.30400       12.89600
H         12.90400        8.37500       12.95100
H         12.15800        9.55300       13.73600
H         13.36500        9.89300       12.74000
C         12.34700        9.04500       10.44300
H         11.73100        9.12700        9.68300
H         12.65700        8.11900       10.51100
H         13.11600        9.63600       10.30500
C         11.17800       10.90500       11.70400
H         10.54300       11.03300       10.96800
H         11.96200       11.47500       11.56000
H         10.75000       11.14500       12.55100
Pd         2.69800       13.00000        8.35000
P          1.88500       14.87000        7.28900
P          1.64300       13.67400       10.31200
C          3.67300       11.09400        8.23300
H          3.07200       10.30500        8.10700
C          3.91700       11.88100        7.06500
H          3.49800       11.56500        6.22700
H          4.84300       12.20800        6.94100
O          4.38500       10.09400       10.21700
H          5.05300       10.16900       10.95800
C          4.63400       10.99400        9.32200
O          5.68600       11.72400        9.38800
C          0.69500       15.64600        8.46200
H          0.67100       16.62200        8.29400
H         -0.21000       15.28600        8.28600
C          1.04900       15.40100        9.95200
H          0.24700       15.58400       10.50500
H          1.75300       16.04300       10.22200
C          3.09900       16.22900        6.85000
C          3.61400       16.83900        8.13300
H          2.86800       17.23500        8.62600
H          4.27200       17.53300        7.92200
H          4.03600       16.14300        8.67900
C          4.28200       15.62200        6.12000
H          3.97900       15.23200        5.27400
H          4.68300       14.92100        6.67800
H          4.94600       16.31800        5.94200
C          2.49100       17.37400        5.99300
H          2.15100       17.00700        5.15000
H          3.18100       18.04200        5.80300
H          1.75400       17.79500        6.48400
C          0.79200       14.49600        5.78800
C         -0.20700       15.60600        5.44200
H         -0.75100       15.81500        6.23100
H         -0.79000       15.30400        4.71400
H          0.27900       16.40800        5.15900
C          1.65400       14.14600        4.56500
H          2.28500       13.43600        4.80300
H          2.14800       14.93900        4.27600
H          1.07600       13.83600        3.83800
C         -0.00300       13.23900        6.16700
H         -0.57000       13.43200        6.94100
H          0.61800       12.51400        6.39000
H         -0.56400       12.96600        5.41000
C          2.77700       13.93900       11.80000
C          2.26100       14.96700       12.81700
H          2.07800       15.81500       12.36200
H          2.93800       15.10800       13.51000
H          1.43700       14.63300       13.23000
C          4.11000       14.47100       11.21700
H          3.95200       15.32800       10.76800
H          4.46700       13.82500       10.57300
H          4.75700       14.59600       11.94500
C          3.08000       12.59500       12.49400
H          3.42100       11.95600       11.83400
H          2.26000       12.24200       12.89600
H          3.75300       12.73200       13.19400
C          0.10200       12.72300       10.85300
C         -0.44900       13.10000       12.21900
H          0.23600       12.94600       12.90200
H         -1.23700       12.55100       12.41700
H         -0.70300       14.04700       12.21900
C         -0.97200       12.95500        9.78600
H         -0.61000       12.72100        8.90500
H         -1.23800       13.89700        9.78800
H         -1.75100       12.39400        9.97900
C          0.44300       11.22000       10.83200
H          0.80000       10.97900        9.95400
H         -0.36800       10.69900       11.01100
H          1.11200       11.02800       11.52100
