339
C:\Users\Javier\OneDrive - Universitat de Barcelona\Tesi\4 - Contribucions\Treballs\3-PhD\chapter_1\cif\pc2p\QUMMOC.pc2p.pdb
Pd         4.78300        3.63600       24.95700
P          3.95800        5.33300       26.15700
P          3.47700        4.32400       23.30300
C          3.07900        6.44500       25.04300
H          2.39000        6.94300       25.54900
H          3.71400        7.10200       24.66400
C          2.41300        5.66800       23.90600
H          2.21300        6.28800       23.16100
H          1.55600        5.29000       24.22700
C          5.26700        6.31200       26.95200
H          5.64700        5.76100       27.69500
C          6.41000        6.64100       25.99600
H          6.04800        7.15200       25.23000
H          6.78400        5.79600       25.64600
C          7.53100        7.44700       26.64400
H          7.96500        6.90700       27.35000
H          8.21400        7.67000       25.96500
C          6.98000        8.72100       27.24700
H          7.71100        9.20900       27.70300
H          6.63200        9.29900       26.52300
C          5.88500        8.44800       28.22900
H          5.52300        9.30400       28.56900
H          6.24800        7.94000       28.99800
C          4.76800        7.64600       27.56800
H          4.35500        8.19500       26.85700
H          4.07100        7.44900       28.24200
C          2.82700        4.88900       27.49700
H          2.58900        5.74200       27.96100
C          1.53600        4.27700       27.05000
H          1.72300        3.42900       26.57300
H          1.08400        4.89100       26.41800
C          0.61700        4.00300       28.23700
H         -0.21100        3.56600       27.91600
H          0.36800        4.86100       28.66400
C          1.30100        3.10400       29.26600
H          0.70200        2.97000       30.04600
H          1.49200        2.21800       28.86600
C          2.57200        3.74400       29.71400
H          3.03700        3.14400       30.35100
H          2.36900        4.59200       30.18300
C          3.49300        4.02700       28.51900
H          4.31500        4.47600       28.84000
H          3.75800        3.17000       28.10000
C          4.50800        4.97400       21.95800
H          4.85800        4.16300       21.48900
C          5.72500        5.72500       22.39500
H          6.23800        5.17400       23.03700
H          5.44900        6.55600       22.85600
C          6.63300        6.08400       21.19200
H          7.40500        6.61600       21.50500
H          6.97800        5.25500       20.77600
C          5.85100        6.87600       20.17300
H          5.57800        7.73800       20.57300
H          6.43600        7.07200       19.39900
C          4.64500        6.15700       19.69900
H          4.91700        5.35000       19.19600
H          4.13200        6.74300       19.08800
C          3.74400        5.74100       20.89400
H          3.35000        6.55200       21.30000
H          3.00100        5.17700       20.56000
C          2.34600        3.08000       22.59000
H          1.61600        3.58100       22.12600
C          1.68600        2.26100       23.71400
H          1.18200        2.86600       24.31100
H          2.38500        1.81000       24.25100
C          0.72900        1.20400       23.12100
H          0.38700        0.63100       23.85600
H         -0.04800        1.66400       22.71300
C          1.36300        0.36600       22.12600
H          0.69400       -0.26100       21.75200
H          2.07500       -0.16900       22.55500
C          1.95700        1.16600       21.01500
H          1.23900        1.64800       20.53300
H          2.40900        0.56300       20.37500
C          2.96800        2.17300       21.57600
H          3.72100        1.68300       21.99500
H          3.33500        2.71600       20.83600
C          7.15700        2.48800       26.29400
O          6.09700        3.12300       26.42000
O          8.00600        2.45000       27.22900
C          7.53200        1.75000       25.05900
C          6.71400        1.71400       23.88000
O          5.49700        2.20100       23.74800
C          7.24800        1.03000       22.80300
F          6.49100        0.98100       21.65800
C          8.47600        0.40600       22.73400
H          8.77600       -0.02600       21.94500
C          9.25700        0.44400       23.89500
H         10.10300        0.01600       23.92200
C          8.78100        1.10900       24.99100
H          9.33400        1.14000       25.76200
C          6.82900        3.69000       30.12700
C          6.29100        4.58100       31.05100
C          5.45300        4.17700       32.06800
H          5.00800        4.80100       32.62900
C          5.29600        2.80500       32.22600
H          4.80600        2.48400       32.97300
C          5.82500        1.90400       31.34400
H          5.66500        0.97600       31.48100
C          6.59400        2.31300       30.24800
H          6.93800        1.69000       29.61900
O          7.52400        4.25500       29.11400
H          7.81400        3.65400       28.60300
F          6.50400        5.86300       30.94100
Pd         5.36100       -5.01300       25.00500
P          6.32800       -3.27700       26.00900
P          6.64800       -4.57600       23.25600
C          7.44800       -2.43200       24.83000
H          6.97100       -1.67200       24.41200
H          8.22900       -2.07100       25.32000
C          7.92600       -3.37400       23.75600
H          8.72100       -3.86400       24.08500
H          8.20300       -2.84700       22.96300
C          7.36100       -3.69700       27.46600
H          7.77800       -2.84700       27.78700
C          8.51100       -4.66900       27.11500
H          8.13600       -5.51800       26.76800
H          9.08000       -4.27000       26.41000
C          9.35200       -4.94600       28.36600
H         10.06300       -5.59700       28.13700
H          9.79200       -4.10600       28.65000
C          8.55500       -5.48500       29.50600
H          9.13900       -5.59900       30.29800
H          8.18200       -6.36900       29.26600
C          7.41700       -4.52300       29.84300
H          7.79400       -3.66900       30.17200
H          6.86000       -4.91000       30.56200
C          6.53900       -4.25000       28.60600
H          6.10300       -5.09100       28.31900
H          5.82800       -3.60200       28.84300
C          5.08100       -2.12800       26.61500
H          4.52900       -2.61700       27.28900
C          4.13700       -1.66900       25.51500
H          3.77700       -2.45800       25.03800
H          4.63800       -1.11800       24.85900
C          2.98100       -0.85000       26.08900
H          2.36800       -0.58000       25.35900
H          2.46900       -1.40300       26.73400
C          3.50800        0.37700       26.78400
H          2.75300        0.87400       27.18600
H          3.94000        0.96700       26.11800
C          4.51200        0.02900       27.87100
H          4.05100       -0.44200       28.60800
H          4.90500        0.86200       28.23400
C          5.63800       -0.86900       27.30800
H          6.17500       -0.35100       26.65700
H          6.23700       -1.14400       28.04500
C          7.45200       -6.09800       22.60800
H          6.70300       -6.68700       22.30500
C          8.14800       -6.87000       23.75100
H          8.91700       -6.34300       24.08800
H          7.51200       -7.00000       24.50100
C          8.64200       -8.24400       23.25000
H          9.15400       -8.69300       23.96700
H          7.86500       -8.81200       23.02400
C          9.51000       -8.07800       22.04200
H         10.34100       -7.60500       22.30000
H          9.76500       -8.97300       21.70200
C          8.83800       -7.32000       20.95200
H          8.06900       -7.84300       20.61800
H          9.47300       -7.19900       20.20200
C          8.34600       -5.94300       21.41800
H          9.12200       -5.37400       21.65500
H          7.85100       -5.49900       20.68600
C          5.76000       -3.81800       21.82600
H          6.41200       -3.80900       21.06500
C          5.34300       -2.40100       22.02600
H          6.14100       -1.85000       22.22400
H          4.73600       -2.34800       22.80500
C          4.64000       -1.84000       20.80700
H          4.32000       -0.92400       21.01300
H          5.28700       -1.77600       20.06200
C          3.46300       -2.68800       20.37300
H          2.75500       -2.64800       21.06300
H          3.09200       -2.32500       19.53000
C          3.86900       -4.09400       20.16500
H          4.46900       -4.13900       19.37800
H          3.06300       -4.63100       19.96200
C          4.58900       -4.72100       21.37600
H          4.93600       -5.61600       21.12800
H          3.95000       -4.83400       22.12100
C          3.11900       -6.26400       26.36800
O          4.13000       -5.58900       26.44400
O          2.30900       -6.37100       27.31800
C          2.73600       -6.98400       25.14100
C          3.58600       -7.14000       24.00300
O          4.80900       -6.72700       23.89500
C          3.00900       -7.77200       22.91900
F          3.84400       -7.93400       21.82100
C          1.70600       -8.23700       22.79800
H          1.36800       -8.58900       21.98100
C          0.90300       -8.15200       23.97400
H          0.01500       -8.49100       23.99000
C          1.46000       -7.56300       25.08300
H          0.93800       -7.54800       25.87500
C          3.28800       -6.94500       24.99600
O          4.17200       -6.33700       24.42700
O          2.56300       -7.75300       24.35900
C          2.86800       -6.73700       26.39400
C          3.38400       -5.68200       27.21800
O          4.03300       -4.65200       26.76800
C          2.98700       -5.70100       28.54000
F          3.40600       -4.66400       29.34300
C          2.31000       -6.73700       29.17700
H          2.21900       -6.76200       30.12200
C          1.76400       -7.72200       28.33700
H          1.15900       -8.37300       28.68700
C          2.11000       -7.73900       27.01300
H          1.82200       -8.48000       26.48600
C          3.28100       -5.14800       30.25400
C          3.69400       -4.25800       31.23800
C          4.37900       -4.72600       32.35500
H          4.66100       -4.11800       33.02900
C          4.65300       -6.08300       32.48400
H          5.12100       -6.40200       33.24700
C          4.24000       -6.97200       31.49900
H          4.42700       -7.90000       31.58900
C          3.55400       -6.50400       30.38500
H          3.27200       -7.11200       29.71100
O          2.70400       -4.53300       29.15300
H          2.46800       -5.11700       28.59800
F          3.45000       -2.97800       31.15900
C          2.20100       -7.70500       20.92800
C          2.64600       -7.56700       19.62000
C          1.75000       -7.18600       18.61700
H          2.06200       -7.09300       17.72400
C          0.42600       -6.97900       18.92200
H         -0.19100       -6.72200       18.23800
C         -0.03300       -7.11700       20.22000
H         -0.94400       -6.96500       20.43900
C          0.86000       -7.48000       21.23400
H          0.55400       -7.58000       22.12600
O          3.23000       -7.99800       21.77900
H          2.94100       -8.06400       22.56300
F          3.92500       -7.61800       19.35100
C         -1.57800      -11.01100       26.28900
O         -2.58900      -11.68700       26.21200
O         -0.76800      -10.90400       25.33800
C         -1.19500      -10.29100       27.51600
C         -2.04500      -10.13500       28.65300
O         -3.26800      -10.54800       28.76100
C         -1.46800       -9.50300       29.73800
F         -2.30300       -9.34100       30.83600
C         -0.16500       -9.03800       29.85900
H          0.17300       -8.68600       30.67500
C          0.63800       -9.12300       28.68200
H          1.52600       -8.78400       28.66600
C          0.08100       -9.71200       27.57400
H          0.60300       -9.72800       26.78100
Pd        -3.82000      -12.26200       27.65200
P         -4.78700      -13.99800       26.64700
P         -5.10700      -12.69900       29.40100
C         -5.90700      -14.84300       27.82600
H         -5.43000      -15.60300       28.24500
H         -6.68800      -15.20400       27.33700
C         -6.38500      -13.90100       28.90000
H         -7.18000      -13.41100       28.57100
H         -6.66200      -14.42800       29.69300
C         -5.82000      -13.57800       25.19100
H         -6.23700      -14.42800       24.87000
C         -6.97000      -12.60600       25.54100
H         -6.59500      -11.75800       25.88900
H         -7.53900      -13.00500       26.24700
C         -7.81100      -12.32900       24.29000
H         -8.52200      -11.67800       24.51900
H         -8.25100      -13.16900       24.00600
C         -7.01400      -11.79000       23.15000
H         -7.59800      -11.67600       22.35800
H         -6.64100      -10.90600       23.39000
C         -5.87600      -12.75300       22.81300
H         -6.25300      -13.60600       22.48400
H         -5.31900      -12.36600       22.09500
C         -4.99800      -13.02600       24.05100
H         -4.56200      -12.18400       24.33800
H         -4.28700      -13.67300       23.81400
C         -3.54000      -15.14700       26.04100
H         -2.98800      -14.65800       25.36700
C         -2.59600      -15.60600       27.14200
H         -2.23600      -14.81700       27.61800
H         -3.09700      -16.15700       27.79700
C         -1.44000      -16.42500       26.56800
H         -0.82700      -16.69500       27.29700
H         -0.92800      -15.87200       25.92300
C         -1.96700      -17.65200       25.87300
H         -1.21200      -18.14900       25.47000
H         -2.39900      -18.24300       26.53900
C         -2.97100      -17.30500       24.78500
H         -2.51100      -16.83300       24.04800
H         -3.36400      -18.13700       24.42200
C         -4.09700      -16.40600       25.34900
H         -4.63400      -16.92500       25.99900
H         -4.69600      -16.13200       24.61200
C         -5.91100      -11.17700       30.04800
H         -5.16200      -10.58800       30.35100
C         -6.60700      -10.40500       28.90600
H         -7.37600      -10.93200       28.56900
H         -5.97100      -10.27500       28.15500
C         -7.10100       -9.03100       29.40600
H         -7.61300       -8.58200       28.69000
H         -6.32400       -8.46300       29.63200
C         -7.96900       -9.19700       30.61400
H         -8.80000       -9.67100       30.35600
H         -8.22400       -8.30200       30.95400
C         -7.29700       -9.95600       31.70400
H         -6.52800       -9.43200       32.03900
H         -7.93200      -10.07700       32.45500
C         -6.80500      -11.33300       31.23800
H         -7.58100      -11.90100       31.00100
H         -6.31000      -11.77700       31.97000
C         -4.21900      -13.45700       30.83000
H         -4.87100      -13.46600       31.59100
C         -3.80200      -14.87400       30.63000
H         -4.60000      -15.42500       30.43300
H         -3.19500      -14.92800       29.85100
C         -3.09900      -15.43500       31.84900
H         -2.77900      -16.35100       31.64400
H         -3.74600      -15.49900       32.59400
C         -1.92200      -14.58700       32.28400
H         -1.21400      -14.62700       31.59400
H         -1.55100      -14.95000       33.12600
C         -2.32800      -13.18100       32.49200
H         -2.92800      -13.13600       33.27900
H         -1.52200      -12.64400       32.69400
C         -3.04800      -12.55400       31.28100
H         -3.39500      -11.65900       31.52800
H         -2.40900      -12.44200       30.53500
C         -1.74000      -12.12700       22.40300
C         -2.15300      -13.01700       21.41800
C         -2.83800      -12.54900       20.30200
H         -3.12000      -13.15700       19.62800
C         -3.11200      -11.19300       20.17300
H         -3.58000      -10.87300       19.40900
C         -2.69900      -10.30300       21.15700
H         -2.88600       -9.37500       21.06800
C         -2.01300      -10.77100       22.27100
H         -1.73100      -10.16300       22.94500
O         -1.16300      -12.74200       23.50300
H         -0.92700      -12.15800       24.05900
F         -1.90900      -14.29700       21.49700
