113
C:\Users\Javier\OneDrive - Universitat de Barcelona\Tesi\4 - Contribucions\Treballs\3-PhD\chapter_1\cif\pc2p\RACGIL.pc2p.pdb
Ru         2.58900        3.73300        2.49000
P          4.09700        4.99600        3.69300
P          3.78900        1.92900        3.29900
N          0.63400        3.84700        4.85400
C          2.08400        5.14900        0.82600
C          2.97600        4.15800        0.32200
C          2.30400        2.93400        0.43300
C          1.03300        3.20400        0.97700
C          0.91800        4.53700        1.22900
C          3.35400        6.27300        4.82600
C          2.27400        7.13000        4.21100
C          4.41600        7.11000        5.57100
C          5.49900        5.87300        2.86100
C          5.03700        7.04700        1.99500
C          6.38600        4.97900        2.08500
C          4.92900        3.90500        4.90600
C          5.16800        2.49100        4.37200
C          4.68400        0.80800        2.07500
C          5.45600        1.56200        1.01800
C          5.60100       -0.19300        2.74000
C          2.84700        0.65700        4.28200
C          2.63400        1.07800        5.74300
C          1.55000        0.31100        3.56600
C          1.43600        3.76100        4.03600
C         -0.56000        4.01000        5.71200
C         -1.45600        5.11000        5.06800
C         -1.62100        3.71600        4.75500
C         -1.42300        2.64500        5.59200
C         -0.78300        2.69000        6.48800
C         -0.00900        4.23600        7.16300
C         -0.50000        5.11100        6.52800
C          6.30900        4.18000        8.83300
C          5.27000        3.32400        8.49900
C          3.95000        3.74600        8.34500
C          3.61100        5.05800        8.53900
C          4.61600        5.93100        8.86600
C          5.91900        5.48900        9.01500
C          8.28000        3.56500        7.26900
C          8.49100        2.37300        6.56300
C          8.75700        2.30500        5.21900
C          8.83500        3.47100        4.47000
C          8.60900        4.67500        5.09800
C          8.32600        4.71200        6.46100
C          8.80700        4.77700        9.64800
C          9.92000        5.42800        9.12800
C         10.63300        6.39000        9.83300
C         10.26900        6.73200       11.10200
C          9.20000        6.09400       11.66700
C          8.49300        5.14000       10.97100
C          8.10200        2.25800        9.66300
C          9.29700        1.57200        9.60100
C          9.55700        0.41900       10.36700
C          8.60100       -0.07700       11.25400
C          7.43400        0.59200       11.33400
C          7.17300        1.70500       10.58400
B          7.87900        3.68700        8.86600
H          2.26100        6.16900        0.97900
H          4.19100        4.35400        0.32500
H          2.39500        1.93600        0.01200
H          0.18300        2.72500        1.10400
H         -0.07000        4.94000        1.93500
H          2.92500        5.77000        5.51300
H          1.83500        7.63300        4.88900
H          2.66300        7.73400        3.58200
H          1.63900        6.58200        3.76600
H          5.07700        6.53700        5.93100
H          4.82300        7.70800        4.94500
H          3.99900        7.60500        6.25400
H          6.03300        6.25500        3.56000
H          5.78400        7.55200        1.68900
H          4.55100        6.72400        1.24100
H          4.46400        7.62700        2.49900
H          6.67000        4.25000        2.63900
H          5.91300        4.62700        1.33800
H          7.15100        5.45100        1.78200
H          5.77200        4.28100        5.12400
H          4.39200        3.84800        5.68400
H          5.23400        1.90100        5.11200
H          5.96500        2.48400        3.87500
H          4.00500        0.31200        1.61900
H          6.17000        2.02900        1.41600
H          5.78000        0.95600        0.36600
H          4.87000        2.19300        0.58600
H          5.11600       -0.66800        3.43200
H          5.93400       -0.81800        2.12200
H          6.33000        0.26100        3.16400
H          3.37400       -0.12600        4.30200
H          3.46200        1.27800        6.13800
H          2.06600        1.84300        5.76400
H          2.21100        0.36400        6.20700
H          0.97300        1.07500        3.57600
H          1.73900        0.07100        2.67500
H          1.12300       -0.40400        4.01800
H          5.46400        2.40500        8.35800
H          3.27600        3.11300        8.11800
H          2.70400        5.36300        8.45600
H          4.41400        6.85500        8.99100
H          6.57700        6.13200        9.25800
H          8.44500        1.55900        7.05800
H          8.89200        1.45900        4.80100
H          9.04000        3.44600        3.53800
H          8.65700        5.49000        4.61500
H          8.16100        5.55500        6.87200
H         10.19900        5.21300        8.24500
H         11.37900        6.80700        9.41600
H         10.76600        7.39500       11.56900
H          8.95600        6.30400       12.57100
H          7.76100        4.70900       11.39700
H          9.98500        1.89700        9.03300
H         10.39400       -0.02900       10.28100
H          8.78300       -0.85600       11.75900
H          6.78300        0.26700       11.93600
H          6.34300        2.13000       10.68700
