120
C:\Users\Javier\OneDrive - Universitat de Barcelona\Tesi\4 - Contribucions\Treballs\3-PhD\chapter_1\cif\pc2p\RACGEH.pc2p.pdb
Ru         1.95700        1.19700        3.55500
P          0.00400        2.02800        4.42800
P          2.14100        3.15400        2.36500
C          3.93300        0.13800        3.19300
C          2.90700       -0.61500        2.64100
C          2.05400       -1.02400        3.67000
C          2.51800       -0.50500        4.89600
C          3.72500        0.22000        4.60000
C          5.15100        0.62300        2.46700
C          2.81000       -1.16500        1.21400
C          0.96100       -2.04500        3.50000
C          1.98000       -0.83500        6.26000
C          4.65100        0.83200        5.59600
C         -0.30400        3.66900        3.64600
C          0.92000        4.32400        3.06600
C         -1.62100        1.16500        4.10600
C         -1.83400        0.78700        2.66800
C         -1.84300       -0.00900        5.00000
C         -0.04400        2.29900        6.25200
C          1.20300        3.03400        6.76900
C         -1.31600        3.01700        6.74800
C          1.83600        3.14400        0.56700
C          2.85800        2.34000       -0.16800
C          0.43100        2.69800        0.20200
C          3.72600        4.08900        2.48000
C          3.75900        5.39800        1.66700
C          4.15000        4.36900        3.92600
C          2.08200        3.97300       11.26600
C          2.00300        5.26900       11.78500
C          0.81700        5.98900       11.80500
C         -0.31000        5.43300       11.30800
C         -0.28600        4.18200       10.77400
C          0.90800        3.47900       10.77100
C          4.46900        3.57600       12.50600
C          5.83700        3.76800       12.47700
C          6.59300        4.08900       13.58100
C          5.98900        4.24700       14.81400
C          4.64100        4.04800       14.91800
C          3.91500        3.73500       13.79300
C          3.21700        1.52300       11.27300
C          3.16000        0.78900       12.46600
C          2.90700       -0.56700       12.50000
C          2.69200       -1.27000       11.34300
C          2.73200       -0.57200       10.14800
C          3.00100        0.79600       10.12400
C          4.27900        3.50900        9.79800
C          5.43200        2.81200        9.39100
C          6.10600        3.08200        8.24500
C          5.63800        4.03900        7.37200
C          4.49200        4.73200        7.71200
C          3.82800        4.47300        8.90100
B          3.52200        3.15500       11.21500
H          2.36000        2.47600        4.25900
H          5.63600       -0.12100        2.12700
H          4.89100        1.18400        1.74600
H          5.70100        1.11300        3.06600
H          1.95700       -0.95300        0.85600
H          3.48500       -0.75900        0.67500
H          2.93500       -2.10100        1.22600
H          0.50200       -2.16100        4.32500
H          0.34600       -1.74500        2.83800
H          1.33600       -2.87300        3.22700
H          1.06300       -0.59500        6.30600
H          2.07400       -1.76600        6.42100
H          2.46800       -0.34900        6.91700
H          5.48900        0.38000        5.56900
H          4.78200        1.74900        5.38300
H          4.28000        0.75700        6.46500
H         -0.93800        3.55000        2.94900
H         -0.66700        4.24900        4.30800
H          1.34100        4.82700        3.75400
H          0.63700        4.91500        2.37500
H         -2.30100        1.79400        4.31600
H         -2.72000        0.47000        2.55000
H         -1.68700        1.54400        2.11500
H         -1.21800        0.09900        2.42900
H         -2.73600       -0.31900        4.90100
H         -1.23800       -0.70300        4.77100
H         -1.70000        0.25000        5.90500
H         -0.04200        1.43900        6.65700
H          1.19400        3.04500        7.72100
H          1.98400        2.59000        6.46600
H          1.20100        3.93000        6.44600
H         -1.33100        3.02200        7.69600
H         -1.32000        3.91200        6.42600
H         -2.08600        2.56200        6.42100
H          1.92400        4.04200        0.26900
H          2.76400        1.42100        0.05700
H          2.73800        2.45000       -1.10400
H          3.73000        2.63500        0.07500
H         -0.20300        3.22000        0.68400
H          0.29300        2.81000       -0.72800
H          0.32000        1.78100        0.43200
H          4.39500        3.52800        2.10900
H          4.64200        5.74800        1.67100
H          3.49500        5.21700        0.77100
H          3.16300        6.02600        2.05200
H          4.12400        3.56300        4.42700
H          5.03500        4.72100        3.93600
H          3.55600        5.00400        4.31500
H          2.78800        5.66800       12.14000
H          0.79600        6.86900       12.16500
H         -1.12800        5.91400       11.33000
H         -1.07100        3.79800       10.40400
H          0.91200        2.60100       10.40500
H          6.28200        3.67100       11.64400
H          7.53100        4.20600       13.49400
H          6.50400        4.48400       15.57500
H          4.21100        4.12600       15.76000
H          2.97800        3.62100       13.88800
H          3.30200        1.24700       13.28500
H          2.88000       -1.02200       13.33400
H          2.52400       -2.20400       11.36000
H          2.57900       -1.03300        9.33200
H          3.03500        1.24200        9.28600
H          5.76000        2.11800        9.95200
H          6.90300        2.60100        8.04100
H          6.09000        4.22100        6.55600
H          4.15000        5.39000        7.11900
H          3.04600        4.97300        9.11000
