83
C:\Users\Javier\OneDrive - Universitat de Barcelona\Tesi\4 - Contribucions\Treballs\3-PhD\chapter_1\cif\pc2p\RAHLIW.pc2p.pdb
Ru         5.77600        0.65600        4.18400
Cl         6.43800       -1.32300        2.94000
P          4.34800       -0.65800        5.47100
P          7.39700       -0.17600        5.64600
C          4.86600        2.69400        4.66900
C          4.12100        2.07800        3.62100
H          3.18500        1.95900        3.73000
C          4.72900        1.64000        2.43700
H          4.21300        1.17700        1.78600
C          6.12100        1.88600        2.20200
C          6.86700        2.44300        3.23800
H          7.79800        2.59000        3.11600
C          6.25500        2.79600        4.48700
H          6.79900        3.10400        5.20300
C          4.16700        3.30400        5.83100
H          4.76700        3.31400        6.60700
H          3.36800        2.77900        6.04400
H          3.90500        4.22200        5.61000
C          6.71700        1.51600        0.85300
H          6.57800        0.53500        0.71500
C          5.93100        2.26300       -0.24600
H          4.97600        2.05800       -0.16100
H          6.24900        1.97700       -1.12700
H          6.06700        3.22900       -0.14700
C          8.19400        1.79300        0.73400
H          8.36400        2.74100        0.91600
H          8.49700        1.57400       -0.17100
H          8.68200        1.24400        1.38400
C          3.42000       -1.99600        4.62200
C          3.29900       -2.01400        3.22100
H          3.73100       -1.35100        2.69700
C          2.54800       -3.00200        2.61900
H          2.48400       -3.02800        1.67100
C          1.89400       -3.94700        3.36700
H          1.40300       -4.63800        2.93600
C          1.94600       -3.90000        4.73500
H          1.45400       -4.52800        5.25100
C          2.72400       -2.92000        5.38100
H          2.77200       -2.89500        6.32800
C          2.94800        0.17300        6.32500
C          1.79100        0.40200        5.57900
H          1.75300        0.11900        4.67300
C          0.70200        1.03100        6.13900
H         -0.08200        1.17400        5.62200
C          0.74600        1.45700        7.45400
H          0.00100        1.90300        7.83800
C          1.89200        1.22900        8.21300
H          1.92700        1.51900        9.11700
C          2.97800        0.58300        7.65100
H          3.75000        0.41500        8.17800
C          5.28200       -1.48100        6.82100
H          5.25600       -0.91700        7.63400
H          4.85800       -2.35000        7.03500
C          6.72400       -1.71000        6.40800
H          6.77300       -2.45500        5.75800
H          7.26400       -1.95500        7.19900
C          7.78500        0.90000        7.07600
C          6.73300        1.57000        7.69300
H          5.85600        1.50400        7.33100
C          6.95500        2.33300        8.83600
H          6.22900        2.77600        9.26000
C          8.23200        2.44600        9.35400
H          8.38400        2.96300       10.13500
C          9.28800        1.80400        8.72900
H         10.16800        1.88800        9.08200
C          9.06700        1.04000        7.58900
H          9.79700        0.61100        7.15800
C          9.01400       -0.68000        4.97800
C          9.66100       -1.84500        5.40300
H          9.25500       -2.39900        6.06000
C         10.88900       -2.19500        4.87000
H         11.32100       -2.98700        5.16600
C         11.49400       -1.39900        3.90500
H         12.33800       -1.64300        3.54500
C         10.85400       -0.24600        3.47800
H         11.25400        0.30000        2.81100
C          9.63200        0.10500        4.02100
H          9.20900        0.90300        3.73200
F          0.90100        2.17600        3.04500
F          1.57200        0.50600        1.67500
F         -0.17000        1.85000        1.07400
F          1.95700        2.65600        1.08900
B          1.05900        1.79600        1.70800
