106
C:\Users\Javier\OneDrive - Universitat de Barcelona\Tesi\4 - Contribucions\Treballs\3-PhD\chapter_1\cif\pc2p\RATQUZ.pc2p.pdb
Rh        15.49400        2.54500        3.65300
C         15.09900        0.12700        7.23700
C         16.17100        0.93600        7.59300
C         16.89800        0.62600        8.74200
C         16.59400       -0.50400        9.50300
C         15.54400       -1.31700        9.12600
C         14.80400       -1.00300        8.02000
C         14.20300        0.38300        6.05300
N         14.74000       -0.18900        4.81800
C         15.23100        0.51600        3.76800
N         15.67300       -0.42700        2.90200
C         15.45400       -1.69500        3.41500
C         14.87400       -1.56200        4.60800
C         16.34600       -0.13600        1.63400
C         18.85500        0.19000        2.06400
C         17.78900       -0.62400        1.65400
C         18.06400       -1.95400        1.31200
C         19.32200       -2.49500        1.42100
C         20.38100       -1.69500        1.85500
C         20.14200       -0.35400        2.13200
C         18.69900        1.64900        2.44900
N         18.50400        1.80900        3.89600
C         17.32500        2.12500        4.47500
N         17.56800        1.99500        5.81600
C         18.88200        1.62800        6.05600
C         19.47600        1.51800        4.84700
C         16.55400        2.19700        6.84800
P         15.85600        4.74800        3.27300
C         17.13500        5.16400        2.03200
C         16.81300        5.67700        0.76800
C         17.81600        6.04700       -0.10400
C         19.14300        5.91600        0.24100
C         19.48100        5.34700        1.46100
C         18.47500        4.97800        2.35000
C         16.26500        5.88000        4.65700
C         15.66000        5.61100        5.90200
C         15.92600        6.41900        7.00900
C         16.79300        7.48200        6.87500
C         17.40700        7.74000        5.66700
C         17.13700        6.96100        4.56700
C         14.31900        5.49300        2.56700
C         13.58200        4.46600        1.75000
P         13.45300        2.96400        2.82400
C         12.68000        1.66100        1.81600
C         11.71600        0.80200        2.31400
C         11.27600       -0.27500        1.58000
C         11.81300       -0.53500        0.31700
C         12.77800        0.30100       -0.16800
C         13.22000        1.38400        0.57000
C         12.14300        3.54700        3.95800
C         10.86500        3.93300        3.47200
C          9.96300        4.58000        4.28800
C         10.30200        4.85300        5.61500
C         11.51500        4.47200        6.11600
C         12.42900        3.81400        5.28300
P         13.91100        3.55700        9.68200
F         14.17700        3.46500        8.12700
F         14.04400        1.99600        9.77600
F         13.61800        3.65100       11.21700
F         13.75000        5.09900        9.59800
F         12.36100        3.42000        9.42900
F         15.45900        3.69600        9.89300
H         17.62500        1.19700        9.01400
H         17.10500       -0.72200       10.28100
H         15.35000       -2.10900        9.64700
H         14.05800       -1.56600        7.75700
H         14.09400        1.33600        5.93900
H         13.33600        0.01300        6.22500
H         15.67100       -2.52200        2.96100
H         14.61400       -2.27700        5.21400
H         16.33100        0.81400        1.47000
H         15.87100       -0.55900        0.91300
H         17.33700       -2.51200        0.99500
H         19.47900       -3.40300        1.18600
H         21.26500       -2.05800        1.95600
H         20.87400        0.21200        2.37600
H         17.93500        1.99800        1.98700
H         19.47000        2.12700        2.17100
H         19.29400        1.48700        6.91400
H         20.39600        1.28900        4.67800
H         16.86900        2.84000        7.46900
H         15.75800        2.55000        6.42600
H         15.89300        5.76300        0.51000
H         17.58600        6.37900       -0.97000
H         19.83100        6.22500       -0.36300
H         20.41000        5.19300        1.69800
H         18.70400        4.60000        3.20300
H         15.05900        4.86800        5.98900
H         15.49700        6.24400        7.84900
H         16.98100        8.04300        7.63700
H         18.02500        8.47300        5.60600
H         17.54400        7.18100        3.71200
H         13.74900        5.79600        3.28300
H         14.54300        6.25300        2.03000
H         14.07700        4.26900        0.94600
H         12.71800        4.78200        1.49100
H         11.34500        0.98500        3.18400
H         10.60400       -0.86600        1.94700
H         11.49500       -1.27100       -0.19800
H         13.16000        0.13300       -1.04800
H         13.90900        1.96700        0.22600
H         10.63100        3.75400        2.55600
H          9.09200        4.83400        3.94300
H          9.66800        5.32200        6.17400
H         11.74000        4.65900        7.03600
H         13.27500        3.52700        5.64700
