89
C:\Users\Javier\OneDrive - Universitat de Barcelona\Tesi\4 - Contribucions\Treballs\3-PhD\chapter_1\cif\pc2p\RAZHUY.pc2p.pdb
C          7.72300       30.53000        8.15800
H          7.19300       31.29200        8.11000
C          4.43400       26.83600       11.17800
H          4.86600       26.47800       11.92000
C          3.00700       22.13000        6.90100
H          2.29400       21.70900        7.32600
C          4.82800       27.98300       10.45900
H          5.56400       28.51600       10.65100
C          9.88400       29.50600        8.17600
H         10.81000       29.57800        8.13300
C          6.75000       21.08500        8.72400
C          7.88800       21.34500        7.97500
H          8.08000       22.22100        7.72400
C          6.44700       19.77400        9.10900
H          5.68500       19.59400        9.61200
C          8.75100       20.32300        7.59000
H          9.51400       20.48900        7.08400
C          9.10100       30.63100        8.12200
H          9.50100       31.46700        8.05900
C          3.43700       28.23300        5.96800
H          4.22800       28.62700        6.26100
C          2.41800       29.02800        5.46900
H          2.52900       29.95000        5.41600
C          3.86800       21.39400        6.11200
H          3.74300       20.47800        6.01900
C          1.23000       28.44400        5.05100
H          0.53300       28.98000        4.74500
C          4.91300       22.01200        5.46000
H          5.48300       21.51400        4.92100
C          1.08100       27.07300        5.08600
H          0.29200       26.68100        4.78600
C          8.39800       19.02400        8.01300
N          4.87000       22.22600        9.92300
O         10.26400       18.21400        6.87800
C          7.29900       18.75200        8.73200
H          7.10900       17.87300        8.97600
N          9.31300       17.93900        7.58300
O          9.07000       16.83800        8.00000
H          4.42800       21.69700       10.30900
Ru         4.92600       26.25500        9.08300
P          7.12900       26.45900        8.44900
P          4.61300       25.88100        6.83900
N          6.17100       23.47700        8.76200
C          7.90200       28.12700        8.34400
N          5.21700       24.21300        9.35600
N          4.40000       23.48000       10.06200
C          3.25300       26.32000       10.56200
H          2.77900       25.56500       10.82600
C         10.23100       23.99300        9.64000
H         10.92100       23.50900        9.24500
C          8.33800       25.48900        9.43200
C          9.39800       24.79900        8.84300
H          9.55300       24.87200        7.93000
C          3.28600       26.83900        6.03500
C          5.11700       23.38300        5.61000
H          5.82100       23.79800        5.16500
C          5.93800       22.22300        9.12400
C          6.14200       26.32000        5.90200
H          6.14100       25.88200        5.03700
H          6.18300       27.27900        5.75900
C          2.10600       26.27700        5.57000
H          2.00300       25.35300        5.58200
C          2.93800       27.15900        9.48800
H          2.20500       27.05900        8.92500
C          3.20400       23.50400        7.06600
H          2.62800       23.99900        7.60200
C          7.34300       25.86100        6.72100
H          8.16100       26.22000        6.34300
H          7.40100       24.89200        6.71100
C         10.03300       23.91600       10.99500
H         10.59700       23.39500       11.51900
C          7.13000       29.26500        8.26800
H          6.20400       29.19100        8.29000
C          4.27800       24.13100        6.41700
C          8.97900       24.62000       11.58700
H          8.84200       24.57100       12.50500
C          3.91200       28.18700        9.39200
H          3.94400       28.86500        8.75400
C          8.14200       25.39600       10.80300
H          7.43900       25.85900       11.19900
C          9.28300       28.25500        8.29900
H          9.81600       27.49400        8.35000
P          9.12600       23.17600        4.09800
F          8.28600       22.82800        5.31400
F         10.17400       23.43800        3.05700
F          8.16800       24.17900        3.65700
F         10.26600       22.35000        4.72200
F          8.65800       21.96900        3.36000
F          9.53400       24.26800        5.04700
