82
C:\Users\Javier\OneDrive - Universitat de Barcelona\Tesi\4 - Contribucions\Treballs\3-PhD\chapter_1\cif\pc2p\REDYIJ.pc2p.pdb
Ru         1.78300        4.77100        6.48300
C          1.13300        3.50700        8.18600
H          0.73100        3.92500        8.93800
C          0.46300        3.07800        6.99600
H         -0.47700        3.09100        6.85600
C          1.42400        2.63000        6.06300
H          1.25000        2.34800        5.17200
C          2.72500        2.67800        6.70600
C          4.01900        2.31600        6.26100
H          4.16100        2.02000        5.37100
C          5.05900        2.40100        7.14300
H          5.92900        2.14600        6.86200
C          4.86500        2.86300        8.47100
H          5.60500        2.88700        9.06700
C          3.63700        3.27600        8.91500
H          3.52900        3.61300        9.79700
C          2.52900        3.19000        8.03100
N          2.48000        5.11900        4.58800
C          2.78200        5.20800        3.49700
C          3.12100        5.30100        2.08500
H          3.81200        4.63900        1.87100
H          3.45700        6.20000        1.88900
H          2.32100        5.12600        1.54500
P          2.91200        6.69300        7.08400
C          4.66700        6.80600        6.61700
C          5.60300        6.09300        7.36400
H          5.31700        5.58000        8.11100
C          6.95300        6.12500        7.02900
H          7.57900        5.62200        7.53600
C          7.37900        6.88800        5.96200
H          8.30200        6.92600        5.74400
C          6.46700        7.59300        5.21300
H          6.76200        8.11000        4.47400
C          5.10800        7.55300        5.53400
H          4.48400        8.04000        5.00900
C          2.91600        7.29100        8.81500
C          3.50000        8.52100        9.12800
H          3.94500        9.02000        8.45300
C          3.43200        9.01700       10.42200
H          3.82400        9.85900       10.62600
C          2.79500        8.29000       11.41700
H          2.74400        8.63700       12.30000
C          2.23500        7.06100       11.12400
H          1.81200        6.55400       11.80900
C          2.29100        6.56200        9.81800
H          1.90000        5.72000        9.61800
C          2.09400        8.08700        6.19700
H          2.43000        8.95600        6.53200
H          2.27400        8.03200        5.22500
C          0.59500        7.94700        6.47300
H          0.08600        8.57400        5.90100
H          0.40400        8.16500        7.42100
P          0.08400        6.20900        6.11100
C         -1.45000        6.06900        7.09200
C         -2.72600        6.14400        6.52400
H         -2.82000        6.18700        5.57900
C         -3.85400        6.15500        7.33400
H         -4.71600        6.21200        6.93900
C         -3.73100        6.08600        8.71300
H         -4.50700        6.09800        9.26200
C         -2.47000        5.99700        9.29000
H         -2.38300        5.94000       10.23400
C         -1.33600        5.99100        8.48500
H         -0.47600        5.93300        8.88400
C         -0.49900        6.20200        4.38500
C         -1.01400        5.01700        3.87000
H         -1.05900        4.24800        4.42400
C         -1.46100        4.94000        2.55600
H         -1.80800        4.12300        2.21900
C         -1.39900        6.05500        1.74000
H         -1.71900        6.01100        0.84700
C         -0.86900        7.22700        2.23100
H         -0.81400        7.99100        1.66800
C         -0.41300        7.30500        3.54700
H         -0.04200        8.11700        3.87100
P          3.71300        1.01600        2.13000
F          4.77400        2.04900        1.55600
F          3.03300        2.15900        3.01300
F          2.64400       -0.03000        2.69400
F          4.34600       -0.15200        1.24400
F          4.70800        0.65200        3.32400
F          2.72500        1.37300        0.93300
