44
C:\Users\Javier\OneDrive - Universitat de Barcelona\Tesi\4 - Contribucions\Treballs\3-PhD\chapter_1\cif\pc2p\REFQAU.pc2p.pdb
Pd        -5.70200       -2.42300        4.74000
Pd        -1.05100        6.17800        4.98900
Sn        -6.68400       -4.79000        4.98700
Sn         0.10700        3.88700        4.92500
P         -5.34200       -0.26100        4.06500
P         -3.52800       -2.42300        5.55500
P         -3.16000        5.91700        5.91500
P         -1.60600        8.36900        4.59300
Si        -7.46100       -7.13900        7.36400
Si        -8.33700       -4.15200        8.01200
Si        -6.80100       -6.38800        1.96600
Si        -9.23300       -4.49200        2.75300
Si         1.26100        1.44500        7.05400
Si         2.03100        4.42900        7.81300
Si         2.50900        4.47800        2.58400
Si         0.06600        2.61300        1.78300
O         -5.12500       -6.10100        5.03500
O         -1.31900        2.42700        5.00500
C         -3.56100        0.09600        4.32500
C         -2.90200       -0.72200        5.36100
C         -6.30100        1.06200        4.93500
C         -5.59100        0.10600        2.28400
C         -3.19400       -2.78000        7.33800
C         -2.33900       -3.49200        4.67700
C         -6.05900        1.03400        6.45400
C         -7.75000        0.93000        4.61700
C         -5.04400       -0.96000        1.37900
C         -5.10800        1.53000        1.86200
C         -4.12800       -1.88400        8.29600
C         -3.42000       -4.24400        7.64600
C         -2.37700       -3.20100        3.16600
C         -0.85500       -3.44500        5.17400
C         -7.92500       -5.43800        6.69600
C         -7.89100       -5.63500        3.31100
C         -7.58200       -8.38800        6.02000
C         -5.72400       -7.20400        8.09700
C         -8.61300       -7.70400        8.68400
C         -8.12500       -2.39800        7.44000
C         -7.29900       -4.28100        9.52600
C        -10.13900       -4.32800        8.50500
C         -5.31500       -5.31400        1.60000
C         -6.18200       -8.09200        2.46700
C         -8.01800       -6.89500        0.51700
C         -7.44200       -6.36700        0.23900
