124
C:\Users\Javier\OneDrive - Universitat de Barcelona\Tesi\4 - Contribucions\Treballs\3-PhD\chapter_1\cif\pc2p\RETGAY.pc2p.pdb
Ru         1.16600        3.25300        2.68100
P          1.53200        4.01300        4.87200
P          3.52900        2.96900        2.71800
O         -0.81400       -1.27200        4.68000
O         -1.42700        0.86800        4.78500
C          0.75900        3.28800        0.46000
C          0.34000        2.99600        0.59300
C         -0.43800        2.73600        1.12600
C         -0.76300        3.18800        1.56200
C         -0.97300        3.85600        2.03400
C         -0.60500        4.44800        1.97300
C         -0.15800        5.09800        1.76700
C          0.38800        5.03500        1.39200
C          0.85500        4.70400        0.77500
C          0.95600        4.15900        0.52100
C          1.30500        2.45700       -0.70200
C          0.39700        1.68300       -0.29100
C         -1.30000        1.53100        1.04100
C         -1.54800        5.52200        2.90500
C         -2.20200        4.04100        2.79600
C         -1.96500        2.29100        1.88800
C         -0.32800        6.53100        2.05800
C          0.88200        6.59400        1.30700
C          1.74500        5.54600       -0.15700
C          1.98500        4.48500       -0.64200
C          0.83800        1.59100        3.31000
C          0.48200        0.35100        3.58600
C         -0.63000       -0.13000        4.39300
C         -2.48900        0.48700        5.70900
C          1.39100        5.84100        5.09300
C          2.37700        6.59400        4.20800
C          1.54300        6.34600        6.52700
C          0.49100        3.22900        6.18600
C          1.02400        3.25200        7.61300
C         -0.94800        3.76300        6.15300
C          3.22600        3.54300        5.41100
C          4.22200        3.66000        4.26000
C          4.11100        1.24200        2.70300
C          3.89600        0.47900        4.00200
C          3.56900        0.48000        1.48500
C          4.53300        3.76300        1.37800
C          4.50900        5.28700        1.51600
C          5.99600        3.30100        1.31900
C          8.14400        3.16800        9.37700
C          8.24900        3.92900       10.51600
C          9.39300        3.98800       11.26100
C         10.51100        3.30400       10.87000
C         10.46500        2.53100        9.73200
C          9.31200        2.48400        9.02600
C          5.90700        1.70700        9.10500
C          6.42100        0.72300        9.94100
C          5.66900       -0.35700       10.37300
C          4.37700       -0.48400       10.00100
C          3.81500        0.45600        9.17800
C          4.55000        1.51100        8.76400
C          7.15400        2.67600        6.95300
C          6.83500        1.49700        6.28400
C          7.26400        1.25000        4.98100
C          7.98100        2.18200        4.29200
C          8.33500        3.34300        4.94100
C          7.94400        3.57000        6.24300
C          5.81100        4.33400        8.66800
C          5.69500        5.37300        7.74200
C          4.93700        6.50000        7.94200
C          4.29000        6.68000        9.10900
C          4.34100        5.72000       10.04600
C          5.06500        4.55500        9.82700
B          6.74300        2.98300        8.50700
H          1.04500       -0.34600        3.18700
H         -3.00400        1.25400        5.93400
H         -3.05000       -0.15900        5.29700
H         -2.10600        0.12000        6.49700
H          0.52100        6.08400        4.80700
H          3.26300        6.44500        4.52600
H          2.30200        6.28700        3.31700
H          2.18300        7.52500        4.24600
H          2.43900        6.19900        6.82000
H          1.35500        7.27700        6.55500
H          0.94600        5.88200        7.09500
H          0.42900        2.31300        5.95100
H          0.47800        2.71200        8.16500
H          1.91600        2.91800        7.62000
H          1.02100        4.14600        7.93700
H         -0.96300        4.65200        6.48300
H         -1.27100        3.74600        5.26200
H         -1.49900        3.21400        6.70100
H          3.49700        4.11500        6.11700
H          3.21400        2.64400        5.72000
H          5.01400        3.18600        4.48400
H          4.43200        4.57600        4.12300
H          5.05200        1.28600        2.58200
H          2.96800        0.33500        4.13000
H          4.34000       -0.36200        3.94400
H          4.25000        0.97700        4.72200
H          2.63700        0.33600        1.58900
H          3.72700        0.98500        0.69800
H          4.01200       -0.36000        1.41400
H          4.12700        3.54800        0.54500
H          4.96700        5.54000        2.31600
H          4.94300        5.68600        0.77100
H          3.61200        5.59200        1.56300
H          6.02400        2.35700        1.22900
H          6.42500        3.70300        0.57300
H          6.44000        3.55800        2.11700
H          7.49700        4.44000       10.79500
H          9.40700        4.50800       12.05800
H         11.31000        3.35500       11.38400
H         11.22900        2.05300        9.43700
H          9.29000        1.94800        8.24700
H          7.32500        0.78600       10.22400
H          6.05600       -1.01000       10.93900
H          3.85700       -1.21800       10.31000
H          2.91100        0.36300        8.89700
H          4.13000        2.15800        8.21100
H          6.30800        0.84200        6.72800
H          7.05800        0.42400        4.57000
H          8.23100        2.03600        3.39200
H          8.85600        3.99600        4.48900
H          8.22700        4.36800        6.67400
H          6.16900        5.29700        6.92300
H          4.86400        7.14900        7.25100
H          3.81600        7.48800        9.26400
H          3.87700        5.84000       10.87000
H          5.05200        3.87500       10.48900
