129
C:\Users\Javier\OneDrive - Universitat de Barcelona\Tesi\4 - Contribucions\Treballs\3-PhD\chapter_1\cif\pc2p\RETGEC.pc2p.pdb
Ru         0.61800        4.51500        8.33300
P          0.52100        6.85200        8.39100
P         -1.19200        4.58200        6.84800
O          3.86600        4.14800        4.28700
O          3.61500        6.30700        4.15400
C          0.85700        2.32200        8.99500
C          2.05300        2.78500        8.50300
C          2.50600        3.85500        9.33400
C          1.52000        4.03600       10.32900
C          0.45300        3.11200       10.09300
C          0.14600        1.03600        8.50300
C          2.91000        2.13300        7.45700
C          3.83200        4.44400        9.29300
C          1.58400        4.92300       11.57000
C         -0.69500        2.80200       11.03700
C          1.68100        4.92300        6.63600
C          2.37700        5.14400        5.71300
C          3.31400        5.25300        4.63600
C          4.86600        4.15700        3.33400
C         -0.22600        7.66500        9.88800
C         -1.48700        6.97300       10.40100
C         -0.45300        9.14300        9.71300
C          2.11800        7.76800        8.09300
C          2.10200        8.87300        7.09800
C          2.79700        8.15300        9.40600
C         -0.53400        7.31200        6.99500
C         -1.60100        6.38700        6.67700
C         -0.90500        4.00700        5.09800
C         -2.18300        4.06800        4.18500
C         -0.24300        2.69800        5.04600
C         -2.84500        3.94400        7.30300
C         -3.41100        4.50700        8.57500
C         -2.91000        2.44000        7.39500
C          6.82200        1.01900        6.83100
C          6.45100       -0.16700        7.47700
C          5.41600       -0.96500        6.94400
C          4.85000       -0.55400        5.81600
C          5.15700        0.51700        5.09800
C          6.16000        1.35500        5.70300
C          7.95100        3.56500        7.12900
C          9.08100        4.34600        7.17000
C          9.00500        5.76100        7.03600
C          7.79200        6.32100        6.83100
C          6.66100        5.60900        6.79000
C          6.76800        4.21400        6.92300
C          9.39800        1.28000        6.67700
C         10.08000        0.23300        7.20000
C         11.13900       -0.36200        6.49300
C         11.46200        0.16100        5.28200
C         10.81600        1.18000        4.70800
C          9.78100        1.71700        5.42600
C          8.16400        1.88300        9.06700
C          9.37700        1.98700        9.77500
C          9.47400        2.01500       11.13900
C          8.32600        1.91500       11.83700
C          7.13000        1.80000       11.22100
C          7.04900        1.76300        9.85700
B          8.10000        1.90600        7.41600
H         -0.38800        5.28200        8.79000
H         -0.65800        0.92100        8.98100
H         -0.03200        1.12200        7.57600
H          0.72100        0.29300        8.65100
H          3.13600        1.26900        7.76900
H          2.38600        2.06100        6.66700
H          3.66200        2.65500        7.31800
H          4.48000        3.76100        9.50000
H          4.00500        4.79100        8.44200
H          3.89500        5.12400        9.95300
H          1.62300        4.36300       12.34400
H          2.36800        5.45700       11.53500
H          0.81800        5.46900       11.61300
H         -0.76300        3.49700       11.68800
H         -1.50200        2.74400       10.54800
H         -0.52400        1.97800       11.47700
H          5.21900        3.27500        3.13800
H          4.57800        4.53000        2.48900
H          5.63300        4.69100        3.61500
H          0.43000        7.57300       10.58000
H         -1.73300        7.36600       11.23700
H         -2.19200        7.12200        9.77500
H         -1.33400        6.05700       10.50500
H          0.36400        9.54800        9.39500
H         -1.13200        9.28400        9.07400
H         -0.68400        9.53100       10.54000
H          2.69300        7.11900        7.70800
H          3.00500        9.12600        6.90800
H          1.69100        8.57200        6.29800
H          1.63400        9.60800        7.44900
H          2.75600        7.42400       10.01000
H          3.69400        8.39700        9.24900
H          2.33100        8.90200        9.79400
H         -0.92200        8.16700        7.19200
H          0.02600        7.40600        6.22700
H         -1.85100        6.56000        5.78600
H         -2.31200        6.59100        7.26700
H         -0.32200        4.61600        4.69800
H         -2.57700        4.93200        4.23800
H         -1.93700        3.89800        3.27400
H         -2.81800        3.41600        4.45700
H         -0.83400        2.01500        5.36200
H          0.04000        2.49500        4.17400
H          0.51600        2.73000        5.63200
H         -3.42900        4.21400        6.60100
H         -2.89700        4.15400        9.31700
H         -3.38100        5.42800        8.57800
H         -4.30900        4.18800        8.67600
H         -3.79600        2.18700        7.47000
H         -2.54300        2.09800        6.55900
H         -2.37800        2.16200        8.10100
H          6.89800       -0.45400        8.26400
H          5.13500       -1.76500        7.36600
H          4.11900       -1.08800        5.50500
H          4.74500        0.70300        4.26900
H          6.39100        2.17900        5.26600
H          9.93300        3.92100        7.27300
H          9.78900        6.28700        7.07500
H          7.73400        7.26000        6.74100
H          5.82500        6.02300        6.67500
H          5.97400        3.68300        6.86500
H          9.84700       -0.11200        8.06200
H         11.63700       -1.09900        6.83900
H         12.19500       -0.23500        4.82000
H         11.07100        1.48700        3.84300
H          9.28800        2.44900        5.02300
H         10.18000        2.06400        9.25900
H         10.33700        2.07300       11.55000
H          8.37000        1.95200       12.79900
H          6.32800        1.75100       11.75000
H          6.20000        1.66800        9.44000
