55
C:\Users\Javier\OneDrive - Universitat de Barcelona\Tesi\4 - Contribucions\Treballs\3-PhD\chapter_1\cif\pc2p\RIFSII.pc2p.pdb
Ru         6.11900        2.71300        1.80700
Cl        12.35100        0.45300        2.79200
P          7.26600        3.95900        0.25000
P          4.42900        2.96700        0.26400
C          4.79200        2.61500        3.60700
C          5.88200        1.83100        3.88700
C          7.05000        2.66700        3.88700
C          6.62000        4.02700        3.55800
C          5.18000        3.99200        3.34400
C          6.67700        3.38200       -1.41700
C          5.13700        3.48700       -1.41700
C          9.05500        3.78300        0.19800
C          9.74800        4.16700        1.36700
C         11.11500        4.06200        1.43300
C         11.83200        3.59100        0.31300
C         11.17700        3.26000       -0.82400
C          9.75700        3.33000       -0.88900
C         13.39600        3.43400        0.41200
C          7.03300        5.80600        0.13200
C          7.62400        6.48500       -0.90600
C          7.49300        7.86300       -1.00500
C          6.78900        8.54300       -0.06600
C          6.18900        7.91500        0.95500
C          6.31200        6.50300        1.07100
C          6.67600       10.05900       -0.16500
C          3.20300        4.30600        0.64200
C          3.31000        5.57900        0.14800
C          2.39300        6.55500        0.56000
C          1.37600        6.25900        1.44900
C          1.23900        4.93400        1.89400
C          2.16900        3.92300        1.53200
C          0.31100        7.30500        1.91100
C          3.32200        1.53400       -0.06600
C          3.08800        0.55800        0.88900
C          2.25800       -0.50600        0.65900
C          1.61400       -0.66200       -0.57600
C          1.80200        0.33100       -1.54800
C          2.62400        1.41200       -1.30100
C          0.78400       -1.84800       -0.92200
C          8.45200        0.47100        2.05900
C          7.96000       -0.45300        2.99800
C          8.81200       -1.06300        3.90400
C         10.16400       -0.80200        3.88700
C         10.66800        0.13900        2.88200
C          9.81900        0.75000        2.00900
C          7.55100        1.08100        1.07100
C          6.21700        0.69700        0.85700
Cl         0.95200        1.91800        4.55600
Cl        -0.62700       -0.15700        5.55100
C          0.87100        0.20900        4.95800
F          5.53400        1.62100       13.65500
F          4.85400        1.88300       11.66200
F          6.26700        0.47100       12.50200
F          6.90000        2.19700       11.94200
B          5.90600        1.95300       12.51800
