100
C:\Users\Javier\OneDrive - Universitat de Barcelona\Tesi\4 - Contribucions\Treballs\3-PhD\chapter_1\cif\pc2p\RIJKIG.pc2p.pdb
C         -3.89000        2.10200       19.32300
H         -4.04500        1.98200       20.29300
H         -4.72900        1.87000       18.85200
C         -2.78800        1.12800       18.87400
H         -3.18200        0.22900       18.75300
H         -2.10300        1.06500       19.58600
C         -2.73300        4.50600       20.60300
C         -1.62100        3.50400       20.98900
H         -1.02900        3.35900       20.22000
H         -2.02500        2.65300       21.25500
H         -1.10000        3.86500       21.73800
C         -3.68300        4.63500       21.80800
H         -3.16900        4.89200       22.60300
H         -4.12600        3.77500       21.96900
H         -4.35800        5.32100       21.62100
C         -2.04100        5.85400       20.33100
H         -1.56800        6.14700       21.13800
H         -2.71400        6.52400       20.08700
H         -1.40100        5.75200       19.59600
C         -5.21700        4.66600       18.77500
C         -6.28400        4.17900       19.78700
H         -7.16000        4.54000       19.54000
H         -6.04600        4.48800       20.68700
H         -6.32100        3.19900       19.77900
C         -5.10600        6.20900       18.84400
H         -4.44400        6.51800       18.19200
H         -4.82800        6.47700       19.74500
H         -5.97800        6.60900       18.64000
C         -5.69700        4.28600       17.38900
H         -5.88600        3.32300       17.36000
H         -5.00300        4.49900       16.73200
H         -6.51200        4.78500       17.17500
C         -0.22300        0.91300       17.44300
C          0.56700        1.85700       18.34600
H          0.19800        1.82700       19.25200
H          0.50500        2.77200       17.99800
H          1.50700        1.58000       18.36700
C         -0.16900       -0.49400       18.08100
H          0.76400       -0.78800       18.14500
H         -0.67300       -1.12400       17.52300
H         -0.56300       -0.46100       18.97600
C          0.47700        0.86600       16.06000
H          0.41500        1.74700       15.63400
H          0.03800        0.19800       15.49500
H          1.41900        0.62700       16.17900
C         -2.90300        0.71000       15.94300
C         -2.46500        1.16200       14.53100
H         -1.54600        0.86400       14.36400
H         -2.50800        2.13900       14.47200
H         -3.06300        0.76800       13.86300
C         -2.81400       -0.80300       16.03800
H         -3.05100       -1.09000       16.94400
H         -1.89900       -1.09100       15.83300
H         -3.43500       -1.20900       15.39600
C         -4.37700        1.11600       16.08400
H         -4.89300        0.73100       15.34600
H         -4.45000        2.09200       16.06200
H         -4.72700        0.78000       16.93800
C         -1.30400        6.18300       14.40800
C         -0.71500        7.30000       13.79000
H         -0.05200        7.79000       14.26100
C         -1.07100        7.70800       12.51200
H         -0.65300        8.46900       12.12800
C         -2.02300        7.02300       11.79800
H         -2.25700        7.29700       10.91800
C         -2.63700        5.92100       12.38100
H         -3.30700        5.44500       11.90400
C         -2.27500        5.51100       13.66900
H         -2.70400        4.75200       14.05200
C          1.03700        5.00300       15.98400
C          1.97000        5.08100       17.02400
H          1.71400        5.49200       17.84100
C          3.26200        4.57600       16.90300
H          3.86800        4.65000       17.63200
C          3.66700        3.97500       15.74000
H          4.54800        3.62600       15.65800
C          2.77700        3.88200       14.68800
H          3.04900        3.47800       13.87100
C          1.48700        4.37700       14.81800
H          0.88600        4.28600       14.08800
C         -0.40600        7.24000       17.12500
H          0.08400        6.96600       17.94000
H          0.23700        7.75300       16.57100
C         -1.46600        8.23100       17.57600
C         -1.41700        8.82700       18.83800
H         -0.69800        8.61200       19.41900
C         -2.38900        9.72500       19.27400
H         -2.33800       10.10000       20.14600
C         -3.42200       10.06800       18.42900
H         -4.08800       10.68300       18.71700
C         -3.48800        9.52400       17.18500
H         -4.20000        9.77000       16.60800
C         -2.52700        8.60700       16.73600
H         -2.59200        8.24000       15.86100
Si        -0.77900        5.62500       16.15500
P         -3.50200        3.89100       18.99900
P         -1.96100        1.65300       17.28100
Rh        -2.14300        3.96300       17.11200
H         -2.39000        5.61200       17.02600
H         -1.21900        3.80500       15.95200
