79
C:\Users\Javier\OneDrive - Universitat de Barcelona\Tesi\4 - Contribucions\Treballs\3-PhD\chapter_1\cif\pc2p\RILZIX.pc2p.pdb
Pd        19.58800        5.21600        1.94300
S         17.94700        5.10500        0.33800
O         12.79200        5.25300        0.66000
C         16.45200        5.21200        1.24900
C         15.23000        5.25500        0.56000
H         15.22800        5.29200       -0.38900
P         21.26500        5.10800        0.41100
C         14.03500        5.24600        1.23700
C         12.75800        5.24200       -0.76400
H         13.20800        6.04300       -1.10700
H         11.82700        5.23500       -1.06900
H         13.21700        4.44200       -1.09600
C         21.22200        3.80100       -0.85100
C         22.11900        3.84100       -1.91000
H         22.74200        4.55700       -1.97700
C         22.10800        2.85100       -2.85800
H         22.72700        2.87700       -3.58000
C         21.19400        1.80700       -2.76800
H         21.17100        1.13500       -3.43800
C         20.32200        1.75300       -1.70200
H         19.71400        1.02700       -1.62100
C         20.33100        2.75600       -0.74600
H         19.72300        2.72300       -0.01700
C         21.51900        6.64200       -0.54100
C         20.40200        7.31400       -1.00700
H         19.53500        7.01900       -0.75200
C         20.53700        8.40600       -1.83600
H         19.76200        8.85600       -2.15400
C         21.78900        8.85200       -2.20600
H         21.87800        9.59600       -2.78900
C         22.91100        8.21000       -1.72700
H         23.77500        8.52600       -1.96600
C         22.78300        7.11100       -0.90300
H         23.56000        6.67100       -0.58000
C         22.83000        4.78900        1.30800
H         22.89800        3.83100        1.54300
H         23.60400        5.02700        0.73800
Cl        22.33100        4.14800       -6.81200
C         21.43800        5.21600       -5.82900
H         20.85100        5.75700       -6.41500
H         20.85100        5.75700       -6.41500
S         17.94700        5.32800        3.54800
O         12.79200        5.18000        3.22500
C         16.45200        5.22100        2.63700
C         15.23000        5.17800        3.32500
H         15.22800        5.14100        4.27400
C         14.03500        5.18700        2.64900
C         12.75800        5.19100        4.65000
H         13.20800        4.39000        4.99300
H         11.82700        5.19800        4.95500
H         13.21700        5.99100        4.98200
P         21.26500        5.32500        3.47500
C         21.22200        6.63200        4.73700
C         22.11900        6.59200        5.79600
H         22.74200        5.87600        5.86300
C         22.10800        7.58200        6.74400
H         22.72700        7.55600        7.46600
C         21.19400        8.62600        6.65400
H         21.17100        9.29800        7.32400
C         20.32200        8.68000        5.58800
H         19.71400        9.40600        5.50700
C         20.33100        7.67700        4.63200
H         19.72300        7.71000        3.90300
C         21.51900        3.79100        4.42700
C         20.40200        3.11900        4.89300
H         19.53500        3.41400        4.63800
C         20.53700        2.02700        5.72200
H         19.76200        1.57700        6.04000
C         21.78900        1.58100        6.09200
H         21.87800        0.83700        6.67400
C         22.91100        2.22300        5.61300
H         23.77500        1.90700        5.85200
C         22.78300        3.32200        4.78900
H         23.56000        3.76200        4.46600
C         22.83000        5.64400        2.57800
H         22.89800        6.60200        2.34200
H         23.60400        5.40600        3.14800
H         20.85100        4.67600       -5.24300
Cl        22.33100        6.28500       -4.84600
