94
C:\Users\Javier\OneDrive - Universitat de Barcelona\Tesi\4 - Contribucions\Treballs\3-PhD\chapter_1\cif\pc2p\RIWNIV.pc2p.pdb
Pd         4.17500       -0.80900       15.79000
P          5.80700        0.65800       15.55700
P          2.86700        0.62900       14.72300
F          2.61900       -2.10100       16.17000
F          5.46100       -2.02300       16.80800
C          5.11800        2.27300       14.99700
H          4.89500        2.82800       15.78600
H          5.80200        2.75600       14.46900
C          3.85400        2.07600       14.13700
H          4.11800        1.93400       13.19300
H          3.29700        2.89300       14.17900
C          6.62900        0.88100       17.17700
H          6.94400       -0.02700       17.45300
C          7.88000        1.77800       17.17500
H          8.51600        1.46100       16.48600
H          7.62300        2.70800       16.95200
C          8.55200        1.74300       18.55300
H          8.88000        0.82700       18.73500
H          9.33100        2.35300       18.55300
C          7.58300        2.16000       19.65600
H          7.34400        3.11300       19.53700
H          8.03000        2.06600       20.53500
C          6.31100        1.31300       19.64400
H          5.67800        1.66100       20.32000
H          6.53400        0.37900       19.88700
C          5.64300        1.33500       18.26500
H          5.32800        2.25200       18.06500
H          4.85600        0.73300       18.26900
C          7.15800        0.22700       14.38400
H          7.77900        1.01000       14.34900
C          6.64200       -0.00700       12.95400
H          5.99500       -0.75700       12.95600
H          6.17000        0.80300       12.63700
C          7.79600       -0.33000       11.99900
H          7.42900       -0.55000       11.10700
H          8.37400        0.46700       11.90500
C          8.63600       -1.50400       12.50100
H          8.09000       -2.33000       12.48500
H          9.40900       -1.63700       11.89800
C          9.13600       -1.25600       13.92000
H          9.75600       -0.48300       13.91900
H          9.63800       -2.04900       14.23600
C          7.97600       -0.97700       14.87100
H          8.32900       -0.79400       15.77800
H          7.39200       -1.77500       14.92300
C          1.99800       -0.03500       13.24000
H          1.54100        0.73200       12.78800
C          0.91500       -1.06400       13.61900
H          1.33900       -1.84000       14.06400
H          0.27800       -0.65400       14.25700
C          0.16400       -1.53500       12.37800
H         -0.50000       -2.22100       12.63900
H         -0.32600       -0.77000       11.98400
C          1.10800       -2.12000       11.33100
H          1.50300       -2.95800       11.67800
H          0.59500       -2.33900       10.51400
C          2.22400       -1.14400       10.98200
H          1.83900       -0.36500       10.50600
H          2.86500       -1.58700       10.37100
C          2.97100       -0.65500       12.22700
H          3.64700        0.02000       11.96400
H          3.44600       -1.41500       12.64700
C          1.55500        1.27900       15.82400
H          1.08400        0.48700       16.21200
C          2.15600        2.06200       17.00300
H          2.80500        1.48800       17.48200
H          2.64300        2.85200       16.66000
C          1.06800        2.51900       17.97500
H          1.47800        3.06500       18.69200
H          0.65000        1.72600       18.39600
C         -0.00600        3.34200       17.26000
H         -0.72300        3.57500       17.90100
H          0.39200        4.18400       16.92700
C         -0.60400        2.56900       16.09200
H         -1.26100        3.14000       15.62100
H         -1.08000        1.77200       16.43500
C          0.48600        2.12900       15.10600
H          0.91300        2.92800       14.70600
H          0.07800        1.60000       14.37500
C          7.28600       -4.27900       17.67700
H          7.36600       -4.92800       16.93400
H          6.68100       -3.55200       17.38400
Cl         8.87800       -3.60300       18.03700
Cl         6.58200       -5.09100       19.08600
C          0.17300       -1.48100       18.00700
H          0.96500       -1.73800       17.47100
H          0.38800       -0.64800       18.49600
Cl        -0.20000       -2.76700       19.16500
Cl        -1.20600       -1.19600       16.92800
C          3.72300       -2.74500       19.07900
H          3.31900       -2.77200       18.17500
H          4.70600       -2.80100       18.97500
Cl         3.30700       -1.20700       19.85500
Cl         3.16000       -4.14300       20.00200
