69
C:\Users\Javier\OneDrive - Universitat de Barcelona\Tesi\4 - Contribucions\Treballs\3-PhD\chapter_1\cif\pc2p\ROCVEM.pc2p.pdb
Rh         7.65400        2.17400       11.54900
S          8.11800        2.58000        8.83800
P          6.24300        2.90100       13.05100
P          8.65300        1.11700       13.18000
F         10.34100        3.64800        8.00500
F          8.66500        4.95200        7.89100
F          9.56800        4.54500        9.79100
O          8.86700        1.66900        9.70800
O          6.98100        3.12400        9.57800
O          7.87800        2.13900        7.50500
C          6.42100        4.75500       13.38500
C          7.67100        4.95800       14.24700
H          7.54400        4.51800       15.11400
H          7.81900        5.91600       14.38600
H          8.44600        4.56900       13.79300
C          6.64800        5.47800       12.05400
H          6.74100        6.44000       12.21700
H          5.88400        5.31900       11.46000
H          7.46400        5.13800       11.63200
C          5.25600        5.40600       14.12400
H          4.45600        5.37900       13.55900
H          5.47900        6.33800       14.32800
H          5.08600        4.92000       14.95700
C          4.42700        2.52600       12.64500
C          3.98100        3.38300       11.45700
H          3.96900        4.32700       11.72100
H          3.08200        3.11000       11.17700
H          4.60600        3.26100       10.71200
C          3.46300        2.71200       13.83100
H          2.57500        2.37300       13.58600
H          3.40000        3.66300       14.05500
H          3.79900        2.21500       14.60700
C          4.34400        1.05400       12.20800
H          5.01800        0.87900       11.51800
H          3.45200        0.87100       11.84700
H          4.50800        0.47400       12.98000
C          6.50500        2.07100       14.68000
H          6.28400        2.70200       15.41200
H          5.89900        1.29100       14.75400
C          7.95600        1.60800       14.82600
H          7.99700        0.83700       15.44700
H          8.50000        2.34000       15.21100
C          8.45100       -0.76500       13.09800
C          6.98800       -1.08100       13.42000
H          6.82400       -2.03800       13.28800
H          6.40500       -0.56500       12.82700
H          6.80000       -0.84200       14.35100
C          9.31200       -1.55600       14.08000
H         10.25300       -1.48400       13.82000
H          9.04000       -2.49700       14.06800
H          9.19300       -1.19400       14.98400
C          8.72800       -1.24700       11.67600
H          8.51600       -2.20200       11.60700
H          9.67400       -1.10700       11.46000
H          8.17100       -0.74400       11.04700
C         10.49800        1.52900       13.33000
C         11.13500        1.10000       14.65700
H         12.05000        1.44700       14.70900
H         11.15200        0.12200       14.71100
H         10.60700        1.45800       15.40300
C         11.27100        0.91300       12.15800
H         12.18800        1.25800       12.15300
H         10.82700        1.14900       11.31600
H         11.28800       -0.06300       12.25400
C         10.64100        3.05100       13.22200
H         10.19000        3.36400       12.40900
H         11.59000        3.28800       13.18100
H         10.23100        3.47400       14.00600
C          9.23300        4.00500        8.63300
