58
C:\Users\Javier\OneDrive - Universitat de Barcelona\Tesi\4 - Contribucions\Treballs\3-PhD\chapter_1\cif\pc2p\ROGGOJ.pc2p.pdb
W         -1.09000       12.66200        3.62900
Pd        -0.43300        9.85500        3.77900
S         -1.79900       11.03600        2.26800
S          0.23100       11.66700        5.12100
S         -2.76100       13.59300        4.60400
S          0.01700       14.12300        2.53300
P          0.86100        8.51900        5.08900
P         -0.87700        7.98600        2.57800
C          1.09100        6.95400        4.09700
C         -0.24600        6.57400        3.57200
C          2.55000        9.10200        5.43300
C          3.14800        8.96500        6.63300
C          4.49600        9.35000        6.79900
C          5.16700        9.90300        5.67300
C          4.55800       10.03100        4.48700
C          3.22100        9.65000        4.35200
C          0.05600        8.07800        6.66300
C         -0.58800        9.03800        7.36900
C         -1.23100        8.67700        8.58400
C         -1.18200        7.43100        9.02000
C         -0.56900        6.44100        8.31400
C          0.09600        6.76200        7.11400
C         -2.57100        7.56000        2.16100
C         -3.37100        6.88500        3.09200
C         -4.65200        6.52500        2.76100
C         -5.20600        6.88500        1.54600
C         -4.45900        7.60900        0.69000
C         -3.15100        7.95600        0.99100
C          0.02800        7.90500        0.99100
C          0.12800        6.73100        0.30000
C          0.84800        6.64900       -0.84000
C          1.44300        7.77200       -1.38100
C          1.39300        8.92500       -0.69000
C          0.69800        9.02200        0.49500
H          1.46500        6.26100        4.63700
H          1.70800        7.10600        3.36200
H         -0.19400        5.78400        3.03200
H         -0.84700        6.39200        4.30700
H          2.64000        8.61000        7.38400
H          4.95000        9.25000        7.65400
H          6.07600       10.20900        5.76300
H          5.04900       10.39500        3.72200
H          2.75400        9.76900        3.49700
H         -0.60800        9.94800        7.05400
H         -1.70400        9.34200        9.09500
H         -1.60700        7.21800        9.86000
H         -0.59500        5.53000        8.63000
H          0.58600        6.08800        6.61800
H         -3.01800        6.66400        3.96200
H         -5.18600        6.00400        3.39200
H         -6.10800        6.62900        1.33600
H         -4.83800        7.90300       -0.16500
H         -2.62800        8.48700        0.36000
H         -0.34200        5.94700        0.64500
H          0.95300        5.79800       -1.27600
H          1.88400        7.73700       -2.25100
H          1.87200        9.69000       -1.02100
H          0.65800        9.86800        0.97600
