71
C:\Users\Javier\OneDrive - Universitat de Barcelona\Tesi\4 - Contribucions\Treballs\3-PhD\chapter_1\cif\pc2p\RONKAI.pc2p.pdb
Pd        -2.35200        0.78000        9.86800
Fe        -4.50200       -0.60200       10.02700
P         -1.20900        0.23700       11.72700
P         -0.65900        2.20700        9.36200
S         -3.09800       -1.09800        8.27600
S         -4.56600        1.58500        9.40300
O         -3.64400       -3.16000       11.18700
O         -6.88400       -1.42000        8.52600
O         -5.55500        0.30600       12.62400
C         -2.10200        0.26200       13.32100
C         -2.55400        1.47100       13.83600
H         -2.31400        2.28400       13.40600
C         -3.35000        1.50400       14.96800
H         -3.64600        2.33800       15.31400
C         -3.71400        0.33300       15.59400
H         -4.25200        0.35600       16.37800
C         -3.29600       -0.87300       15.08000
H         -3.56200       -1.68400       15.50000
C         -2.48400       -0.91700       13.95000
H         -2.19100       -1.75400       13.60800
C         -0.21600       -1.30000       11.77900
C          0.63900       -1.58300       12.84000
H          0.65700       -1.00700       13.59500
C          1.46100       -2.69300       12.80900
H          2.04800       -2.87100       13.53400
C          1.42800       -3.54000       11.72700
H          1.99100       -4.30600       11.70900
C          0.58400       -3.28300       10.66800
H          0.57000       -3.87100        9.92100
C         -0.24800       -2.16800       10.68800
H         -0.83600       -1.99900        9.96100
C          0.11700        1.51700       11.89900
H         -0.26400        2.35300       12.26900
H          0.82200        1.19600       12.51500
C          0.70600        1.77700       10.51100
H          1.17600        0.96800       10.18800
H          1.35800        2.51900       10.55400
C          0.10000        2.14800        7.69800
C          0.12700        0.92600        7.03000
H         -0.27500        0.16200        7.42700
C          0.73700        0.81700        5.78600
H          0.76500       -0.02600        5.34700
C          1.30100        1.92100        5.18600
H          1.72200        1.83900        4.33900
C          1.25100        3.15600        5.82400
H          1.62300        3.92200        5.40500
C          0.65600        3.26800        7.07800
H          0.63000        4.11000        7.51500
C         -0.97500        3.98000        9.65400
C         -0.19900        4.77900       10.49400
H          0.56800        4.41200       10.91700
C         -0.54200        6.10100       10.71800
H         -0.01600        6.63100       11.30500
C         -1.63800        6.65600       10.09500
H         -1.87700        7.55900       10.26400
C         -2.38800        5.89000        9.22700
H         -3.12600        6.27800        8.77300
C         -2.07100        4.56300        9.01100
H         -2.60300        4.04300        8.42100
C         -3.78700       -0.39800        6.74500
H         -3.23400       -0.70700        5.98400
H         -4.69800       -0.76400        6.61600
C         -3.86700        1.11000        6.69600
H         -2.97700        1.48000        6.92300
H         -4.07400        1.38400        5.76700
C         -4.89300        1.72700        7.61700
H         -5.76900        1.30700        7.42900
H         -4.97100        2.68800        7.39200
C         -3.96800       -2.16200       10.73600
C         -5.98200       -1.12600        9.16300
C         -5.14600       -0.04900       11.61200
