147
C:\Users\Javier\OneDrive - Universitat de Barcelona\Tesi\4 - Contribucions\Treballs\3-PhD\chapter_1\cif\pc2p\RULMEQ01.pc2p.pdb
Rh         6.88600       17.58400      -11.36600
S          6.56500       19.25100      -13.03200
B          5.22800       16.34800      -10.71600
B          5.77800       17.57600      -13.55600
B          5.32400       19.38300      -11.55200
B          4.76600       18.00000      -10.48000
B          5.22100       16.23800      -12.44500
B          4.62200       19.03400      -13.26800
B          3.83900       16.86400      -11.47100
B          4.07400       17.40400      -13.16100
B          3.75900       18.59600      -11.85000
P          8.76400       16.42200      -11.83900
P          8.07900       18.45900       -9.68200
C         10.02700       16.75400      -10.53200
C          9.84800       18.19200       -9.98700
C          9.64300       16.84900      -13.40900
C          8.97800       16.53200      -14.58600
C          9.53800       16.86900      -15.81300
C         10.76300       17.52400      -15.86300
C         11.42700       17.84300      -14.68400
C         10.86700       17.50400      -13.45700
C          8.81400       14.59800      -11.92300
C          9.92600       13.96500      -12.46600
C          9.98400       12.57700      -12.51300
C          8.92800       11.82100      -12.01600
C          7.81600       12.45200      -11.47100
C          7.75800       13.84000      -11.42500
C          7.95600       20.28300       -9.46400
C          8.38500       21.09800      -10.50500
C          8.25600       22.47900      -10.40700
C          7.69900       23.04500       -9.26600
C          7.27000       22.23000       -8.22600
C          7.39800       20.85100       -8.32300
C          7.88700       17.84800       -7.96000
C          6.70700       17.22000       -7.57800
C          6.51100       16.85600       -6.24900
C          7.49500       17.12300       -5.30400
C          8.67400       17.75100       -5.68800
C          8.87100       18.11500       -7.01500
P          2.41200       24.98100       -7.26900
P          5.06300       26.05300       -6.34400
N          3.93100       25.14300       -6.96000
C          1.75800       26.26200       -8.38500
C          1.15000       25.94800       -9.59400
C          0.65400       26.96000      -10.40700
C          0.76600       28.28600      -10.01200
C          1.37400       28.60300       -8.80300
C          1.87000       27.59100       -7.98900
C          2.19600       23.39400       -8.06200
C          0.93400       22.82300       -8.17800
C          0.78900       21.56400       -8.74800
C          1.90800       20.87600       -9.20500
C          3.17000       21.44700       -9.08900
C          3.31400       22.70600       -8.51700
C          1.40200       25.00100       -5.79200
C          0.28500       25.81600       -5.65300
C         -0.42000       25.83100       -4.45600
C         -0.00800       25.03400       -3.39700
C          1.10900       24.21900       -3.53300
C          1.81400       24.20400       -4.73100
C          5.89600       25.19800       -5.00400
C          5.80200       23.81500       -4.91500
C          6.45500       23.13700       -3.89200
C          7.20100       23.84500       -2.95600
C          7.29600       25.22800       -3.04500
C          6.64300       25.90600       -4.07000
C          4.51200       27.60600       -5.63500
C          4.78500       28.81500       -6.26900
C          4.30500       30.00400       -5.73500
C          3.55100       29.98600       -4.56700
C          3.27700       28.78000       -3.93300
C          3.75700       27.59100       -4.46700
C          6.23700       26.40700       -7.65800
C          5.73300       26.53400       -8.94600
C          6.58800       26.83800      -10.00000
C          7.94600       27.01500       -9.76400
C          8.45000       26.88800       -8.47300
C          7.59400       26.58400       -7.42100
C          4.45300       15.54300      -16.50400
C          5.54600       16.16300      -16.92200
N          6.50800       16.68700      -17.34000
H          5.28200       15.75400      -10.18700
H          6.22600       17.22000      -14.49700
H          5.43800       20.34800      -11.03700
H          4.59500       18.29700       -9.43500
H          5.39400       15.23400      -12.86100
H          4.15000       19.72200      -13.98600
H          2.91600       16.33500      -11.18600
H          3.36900       17.07800      -13.94000
H          2.82200       19.14400      -11.67000
H          9.92700       16.11600       -9.80900
H         10.91800       16.65400      -10.90500
H         10.17600       18.83800      -10.63200
H         10.34900       18.29900       -9.16400
H          8.15900       16.09300      -14.55400
H          9.09300       16.65400      -16.60100
H         11.13800       17.74800      -16.68300
H         12.24700       18.28200      -14.71500
H         11.31200       17.71800      -12.66800
H         10.63200       14.47100      -12.79800
H         10.72700       12.15300      -12.87700
H          8.96600       10.89200      -12.04500
H          7.13200       11.94600      -11.58400
H          7.01500       14.26400      -11.06200
H          8.75800       20.71900      -11.26800
H          8.54300       23.02200      -11.10200
H          7.61300       23.96900       -9.20100
H          6.89700       22.61100       -7.46200
H          7.11100       20.30600       -7.62600
H          6.04900       17.04100       -8.21000
H          5.72200       16.43700       -5.99400
H          7.36400       16.88100       -4.41700
H          9.33200       17.93000       -5.05400
H          9.65900       18.53300       -7.27100
H          1.07500       25.05900       -9.85700
H          0.24700       26.74800      -11.21600
H          0.43400       28.96400      -10.55500
H          1.44900       29.49300       -8.53700
H          2.27700       27.80300       -7.17800
H          0.18600       23.28400       -7.87300
H         -0.05400       21.18300       -8.82600
H          1.81100       20.03400       -9.58700
H          3.91800       20.98600       -9.39400
H          4.15900       23.08700       -8.43900
H          0.00900       26.35000       -6.36500
H         -1.16900       26.37700       -4.36500
H         -0.47900       25.04400       -2.59500
H          1.38500       23.68500       -2.82400
H          2.56200       23.65800       -4.82400
H          5.30200       23.34100       -5.54200
H          6.39200       22.21200       -3.83300
H          7.63800       23.39100       -2.27200
H          7.79500       25.70200       -2.42000
H          6.70700       26.83100       -4.12900
H          5.28900       28.82500       -7.05100
H          4.48700       30.81100       -6.16000
H          3.22900       30.78400       -4.21100
H          2.77300       28.77000       -3.15400
H          3.57400       26.78300       -4.04500
H          4.82500       26.41400       -9.10500
H          6.25100       26.92300      -10.86200
H          8.51800       27.22000      -10.46800
H          9.35800       27.00800       -8.31700
H          7.93100       26.49900       -6.55800
H          3.67800       15.97900      -16.86500
H          4.41600       15.56800      -15.54500
H          4.47200       14.62800      -16.79900
