107
C:\Users\Javier\OneDrive - Universitat de Barcelona\Tesi\4 - Contribucions\Treballs\3-PhD\chapter_1\cif\pc2p\RULZIH.pc2p.pdb
Ru         3.37500        1.18800        4.06500
P          3.44700        0.00000        5.99300
P          3.04300        2.98500        5.42900
C          1.73300        0.14200        2.80400
C          2.94800       -0.54900        2.68300
C          4.12600        0.09400        2.27000
C          4.06100        1.46700        1.95100
C          2.87400        2.15400        2.08100
C          1.73500        1.49000        2.49500
C          3.54800        1.11600        7.44500
C          2.83200        2.43200        7.18500
C          4.91700       -1.10200        6.24000
C          6.23300       -0.40200        6.18400
C          4.90000       -2.26000        5.25000
C          2.02300       -1.11400        6.34800
C          0.69400       -0.35100        6.44000
C          2.18700       -2.03200        7.57100
C          1.54200        3.97900        5.09300
C          0.26600        3.23800        5.25900
C          1.45800        5.29500        5.87400
C          4.39700        4.23400        5.53300
C          5.68700        3.67900        6.13200
C          4.66000        4.81800        4.13100
C          6.78700        2.86600       18.87400
C          6.42900        2.94800       20.23200
C          6.28300        1.84400       21.05700
C          6.52100        0.58100       20.56500
C          6.84700        0.45200       19.22700
C          6.96200        1.56600       18.41600
C          7.37300        3.86000       16.43400
C          8.62800        3.27000       16.29400
C          9.18800        2.99000       15.05900
C          8.52600        3.31600       13.91200
C          7.31400        3.90400       13.98800
C          6.72300        4.17700       15.23900
C          7.73800        5.39900       18.49900
C          8.54700        5.35700       19.62400
C          9.34800        6.40700       20.03000
C          9.38900        7.55700       19.32100
C          8.60000        7.65400       18.18300
C          7.80700        6.61300       17.80100
C          5.22300        4.64500       17.89100
C          4.25200        3.84400       17.29400
C          2.89900        4.09700       17.31100
C          2.42700        5.20600       17.98100
C          3.34900        6.02100       18.59300
C          4.70400        5.74500       18.54000
B          6.78500        4.19800       17.92200
H          4.66400        1.24000        4.34500
H          0.91200       -0.56900        3.27800
H          2.94900       -1.49500        2.90600
H          4.91000       -0.41100        2.21400
H          4.86500        1.87600        1.69700
H          2.85900        3.07900        1.87300
H          0.89900        1.99300        2.56700
H          3.14800        0.68900        8.19300
H          4.46300        1.29500        7.63400
H          3.18700        3.09500        7.76000
H          1.90600        2.31700        7.36000
H          4.83600       -1.47700        7.11300
H          6.92600       -1.01500        6.41300
H          6.38200       -0.08000        5.30100
H          6.23900        0.32400        6.79000
H          4.06700       -2.70300        5.29200
H          5.05300       -1.93100        4.37800
H          5.59700       -2.87500        5.48300
H          1.94200       -1.68800        5.59800
H          0.69100        0.17000        7.23700
H          0.60900        0.21800        5.69000
H         -0.02100       -0.96900        6.46400
H          1.46600       -2.65500        7.60000
H          3.00800       -2.50100        7.50800
H          2.18000       -1.50900        8.36600
H          1.59000        4.22100        4.17600
H         -0.45400        3.76100        4.93500
H          0.30700        2.42000        4.77400
H          0.12600        3.04700        6.18300
H          2.26200        5.78200        5.77300
H          0.72800        5.81000        5.54800
H          1.31600        5.10500        6.79900
H          4.09400        4.94200        6.09200
H          5.50500        3.31800        6.99600
H          6.02900        2.99700        5.57100
H          6.32300        4.37700        6.21100
H          5.30100        5.51600        4.18800
H          5.00000        4.13100        3.55200
H          3.85300        5.15500        3.76300
H          6.27700        3.81000       20.60300
H          6.02800        1.95900       21.96400
H          6.45700       -0.17500       21.13300
H          6.99200       -0.41300       18.86300
H          7.16900        1.43500       17.50000
H          9.12200        3.05200       17.08200
H         10.03800        2.56700       15.00600
H          8.91800        3.12800       13.06600
H          6.85500        4.13100       13.18700
H          5.86700        4.59500       15.26800
H          8.55100        4.56000       20.14300
H          9.86800        6.32200       20.81900
H          9.94700        8.27800       19.59500
H          8.60600        8.45500       17.67300
H          7.28000        6.71700       17.02000
H          4.54700        3.06300       16.84600
H          2.30400        3.51300       16.85800
H          1.49900        5.39200       18.01600
H          3.04600        6.78800       19.06700
H          5.29900        6.33800       18.97800
