132
C:\Users\Javier\OneDrive - Universitat de Barcelona\Tesi\4 - Contribucions\Treballs\3-PhD\chapter_1\cif\pc2p\SACFUA.pc2p.pdb
Rh         2.61700       18.55300       15.59600
P          2.39700       18.93300       13.37000
P          0.39600       19.33100       15.79600
N          6.52600       16.97200       14.93800
N          5.60300       18.49200       16.11900
N          4.59200       20.60400       16.52700
N          3.83400       22.57400       16.07200
N          1.96500       16.56900       15.39400
N          2.71600       18.06700       17.66200
C          4.57700       17.92500       15.35900
C          5.17900       16.99100       14.62400
H          4.75300       16.42900       13.98700
C          6.77800       17.89100       15.86300
C          7.57900       16.22500       14.19100
H          8.39200       16.16200       14.77100
C          7.12000       14.83800       13.87300
H          6.76400       14.41800       14.68300
H          7.87500       14.31200       13.53700
H          6.41800       14.87700       13.18900
C          7.93900       17.02700       12.94000
H          7.13500       17.16400       12.39700
H          8.60600       16.53500       12.41800
H          8.30600       17.89500       13.20600
C          8.06800       18.14400       16.54200
H          8.20800       17.46900       17.23800
H          8.05300       19.03600       16.95100
H          8.79600       18.09600       15.88800
C          5.40300       19.53900       17.09800
H          6.28100       19.90300       17.37900
H          4.95200       19.16800       17.89700
C          3.35800       20.40600       15.90800
C          2.91300       21.64900       15.62900
H          2.09200       21.85400       15.19600
C          4.86700       21.90800       16.61800
C          3.71600       24.04000       15.96100
H          4.23700       24.37900       16.74400
C          2.32600       24.47000       16.25100
H          2.29900       25.44600       16.34700
H          2.02200       24.05200       17.08300
H          1.74000       24.19900       15.51500
C          4.47800       24.48000       14.83300
H          5.35500       24.04300       14.84000
H          4.59900       25.45100       14.88000
H          4.00300       24.24900       14.00800
C          6.07000       22.54400       17.21100
H          6.46600       23.16100       16.56200
H          6.72400       21.85200       17.44300
H          5.81400       23.03600       18.01800
C          2.89800       17.54900       12.29100
C          4.06600       17.61100       11.52200
H          4.59200       18.40200       11.52200
C          4.45400       16.52300       10.76400
H          5.24500       16.58000       10.24300
C          3.71500       15.35300       10.74900
H          4.00400       14.60500       10.23900
C          2.53500       15.29500       11.49600
H          2.00300       14.50900       11.48100
C          2.14100       16.39700       12.26500
H          1.34000       16.35000       12.77600
C          3.24100       20.39400       12.70800
C          4.59600       20.60700       12.99200
H          5.06700       19.99400       13.54500
C          5.25000       21.70800       12.47100
H          6.16600       21.85400       12.67800
C          4.57700       22.59600       11.64600
H          5.03400       23.34400       11.27100
C          3.22900       22.38700       11.37400
H          2.75900       23.01200       10.83300
C          2.56600       21.28800       11.87500
H          1.65300       21.14000       11.65600
C          0.59900       19.09600       13.04400
H          0.46700       19.54000       12.17000
H          0.19600       18.19200       12.99100
C         -0.11500       19.89900       14.12700
H         -1.09300       19.79300       14.02600
H          0.10300       20.85900       14.02400
C         -0.00400       20.70400       16.92500
C          0.82500       21.00500       18.02100
H          1.60000       20.48200       18.19800
C          0.49600       22.08000       18.84800
H          1.05200       22.28700       19.59100
C         -0.61500       22.84400       18.60600
H         -0.81700       23.58400       19.16800
C         -1.45000       22.53300       17.53200
H         -2.22400       23.06000       17.36700
C         -1.15800       21.45700       16.70200
H         -1.74100       21.23400       15.98400
C         -0.71600       17.98700       16.30700
C         -0.69000       17.60800       17.64800
H         -0.17300       18.11100       18.26700
C         -1.41100       16.50800       18.09300
H         -1.39700       16.26100       19.01100
C         -2.15500       15.77200       17.17400
H         -2.63900       15.00900       17.46700
C         -2.19600       16.13700       15.84000
H         -2.71400       15.63400       15.22100
C         -1.46900       17.25300       15.40800
H         -1.49400       17.50800       14.49300
C          1.68600       15.47900       15.44800
C          1.31100       14.08200       15.48000
H          1.96600       13.57900       16.00800
H          1.29000       13.72800       14.56600
H          0.42400       13.99000       15.88500
C          2.71900       17.51600       18.63800
C          2.74200       16.87100       19.92000
H          3.38300       16.12900       19.90200
H          1.84900       16.52500       20.12900
H          3.01100       17.51700       20.60600
H          4.39300       24.52300       16.51500
C          3.76400       24.47500       14.38100
H          3.73000       25.45300       14.31000
H          2.99600       24.08800       13.91200
H          4.59300       24.14900       13.97700
F          7.50600       20.63000       14.75900
B          8.65000       21.44300       14.70800
F          8.36300       22.63000       14.15400
F          9.71900       20.81400       14.07600
F          9.01700       21.55900       16.03000
B          8.72900       21.07600       14.54900
F          8.71900       21.74100       13.35400
F          9.73300       20.12400       14.50300
F          9.18100       22.14700       15.37600
B          7.54800       14.86500        1.06700
F          7.81700       16.21300        1.26900
F          7.44300       14.26900        2.32000
F          8.59700       14.27900        0.39700
F          6.36500       14.74000        0.39300
B          6.35100       20.86700        3.73800
F          5.12000       20.90500        4.33100
F          6.68100       19.53600        3.44400
F          7.30300       21.34600        4.62900
F          6.31000       21.57600        2.56100
