130
C:\Users\Javier\OneDrive - Universitat de Barcelona\Tesi\4 - Contribucions\Treballs\3-PhD\chapter_1\cif\pc2p\SACFOU.pc2p.pdb
Rh         3.13600       13.85600       18.42500
P          2.12800       11.78600       18.88400
P          4.97100       12.55900       17.75600
N          4.89100       17.59600       17.46800
N          3.88000       15.94000       16.55000
N          0.53900       14.93400       17.71800
N         -0.49300       15.90100       19.33500
N          3.78800       14.05000       20.39600
C          3.96600       15.62800       17.89900
C          4.59100       16.67400       18.47600
H          4.79200       16.76900       19.39900
C          4.45700       17.12500       16.30300
C          3.26600       14.99200       15.62000
H          3.96800       14.51200       15.11300
H          2.69000       15.47400       14.97600
C          2.41900       13.98400       16.44200
H          2.51100       13.08300       16.02000
C          0.92100       14.37500       16.42100
H          0.75900       15.04300       15.70900
H          0.37000       13.57500       16.22600
C         -0.59900       15.53900       18.05700
C          0.76300       15.50800       19.80000
H          1.10600       15.65800       20.67300
C          1.41200       14.87700       18.79100
C          5.57800       18.88400       17.67800
H          5.63700       19.35500       16.79800
C          6.99400       18.61400       18.16800
H          6.96100       18.23200       19.06900
H          7.49900       19.45400       18.18800
H          7.43400       17.98200       17.56100
C          4.78000       19.75600       18.62900
H          3.86900       19.86500       18.28600
H          5.20900       20.63500       18.70300
H          4.74900       19.33100       19.51300
C          4.60000       17.76600       14.96900
H          4.37400       17.11600       14.27000
H          5.52400       18.06700       14.84800
H          3.99500       18.53400       14.90900
C         -1.53200       16.61700       20.11200
H         -2.42400       16.26500       19.83000
C         -1.49600       18.11300       19.80400
H         -0.63800       18.48500       20.09300
H         -2.22400       18.56100       20.28200
H         -1.60500       18.25100       18.83900
C         -1.36500       16.33100       21.58900
H         -1.31000       15.36300       21.73000
H         -2.13500       16.69000       22.08000
H         -0.54300       16.75500       21.91300
C         -1.76600       15.75400       17.15400
H         -1.71000       16.64600       16.75500
H         -2.59600       15.67800       17.66900
H         -1.75900       15.07800       16.44400
C          0.64900       11.44100       17.87100
C          0.71500       10.76700       16.64600
H          1.52900       10.35800       16.37400
C         -0.40300       10.69500       15.83100
H         -0.35500       10.23300       15.00300
C         -1.59700       11.30200       16.22400
H         -2.35300       11.28100       15.64800
C         -1.68100       11.93600       17.45300
H         -2.50100       12.32200       17.73400
C         -0.56000       12.00500       18.27800
H         -0.61900       12.43800       19.12200
C          1.52700       11.39200       20.55800
C          1.30500       10.07200       20.94800
H          1.56000        9.36100       20.37200
C          0.71300        9.79200       22.17000
H          0.55800        8.89000       22.42800
C          0.34400       10.83300       23.02000
H         -0.07700       10.64300       23.85000
C          0.59200       12.14000       22.65600
H          0.35700       12.84900       23.24400
C          1.18200       12.42400       21.43800
H          1.35500       13.32700       21.19800
C          3.35800       10.45700       18.52100
H          3.88700       10.26300       19.33600
H          2.88400        9.63000       18.25700
C          4.29800       10.89500       17.39300
H          3.80300       10.91500       16.53500
H          5.04100       10.24700       17.30500
C          6.30800       12.30600       18.98500
C          6.80300       13.43100       19.65400
H          6.43800       14.28900       19.47000
C          7.82400       13.30000       20.58500
H          8.16600       14.06900       21.02500
C          8.34800       12.03900       20.87600
H          9.04100       11.94900       21.51800
C          7.85500       10.92400       20.22700
H          8.20800       10.06600       20.42700
C          6.84000       11.05200       19.28000
H          6.51100       10.28100       18.83300
C          5.85500       13.03600       16.22800
C          6.54400       14.25900       16.21200
H          6.64100       14.75800       17.01400
C          7.08000       14.74200       15.03200
H          7.54300       15.57200       15.02500
C          6.94200       14.01700       13.86300
H          7.30200       14.35600       13.05100
C          6.28900       12.80800       13.86800
H          6.20700       12.31100       13.06300
C          5.74200       12.30500       15.05100
H          5.29600       11.46700       15.05200
C          4.14000       14.16400       21.46900
C          4.61600       14.26600       22.84400
H          5.38200       13.66800       22.97100
H          3.89600       14.01100       23.45800
H          4.88900       15.18900       23.02600
B          9.32800       17.45500        2.45700
F         10.36100       18.29000        2.34200
F          8.84400       17.53000        3.80000
F          9.76000       16.23000        2.01900
F          8.33600       17.93300        1.63100
B          9.35000       17.28100        2.63200
F          9.93700       16.03800        2.81300
F          8.25200       17.13300        1.79100
B          8.60700       19.27800       14.67800
F          9.00400       19.29700       13.34500
F          7.33600       19.79900       14.79900
F          8.58600       17.96600       15.12100
F          9.46800       20.05700       15.43400
C          0.84200       19.06900       16.16900
H          1.01000       18.56600       15.33400
H         -0.13200       19.22500       16.24200
Cl         1.39500       18.11900       17.55500
Cl         1.68900       20.62000       16.10600
C         -1.57500       16.12200       12.88600
H         -2.15300       16.57100       13.55100
H         -0.72800       16.63200       12.82100
Cl        -1.23100       14.47500       13.42500
Cl        -2.37800       16.12100       11.31900
