86
C:\Users\Javier\OneDrive - Universitat de Barcelona\Tesi\4 - Contribucions\Treballs\3-PhD\chapter_1\cif\pc2p\SAKDOY.pc2p.pdb
Ru         6.00700       16.16000       11.46900
Cl         7.72200       14.03400        6.39800
Cl         6.65100       16.72600        6.16100
P          6.34100       15.52000       13.66800
P          7.58600       17.76100       11.98800
O          8.25300       14.37700       10.59600
O          2.68700       15.19700       12.13400
C          7.39900       15.05000       10.94500
C          3.52800       15.69900       11.33900
C          4.67100       17.38000       10.08300
C          3.89700       17.15600       11.23500
C          3.30700       18.27000       11.94000
C          3.53300       19.53200       11.46800
C          4.31600       19.72900       10.31600
C          4.91100       18.70800        9.61400
C          5.02100       16.09900        9.53300
C          4.37200       15.07800       10.32600
C          4.31000       13.64100        9.90900
C          5.24300       13.13300        9.04200
C          5.14400       11.81700        8.57600
C          4.05600       11.05900        8.95200
C          3.12000       11.52500        9.84700
C          3.26300       12.85100       10.34300
C          8.10600       15.86400       14.00400
C          8.48500       17.29000       13.54700
C          6.19300       13.74800       14.08900
C          5.72800       12.88300       13.15000
C          5.58100       11.51400       13.45900
C          5.96000       11.05900       14.67800
C          6.45300       11.91100       15.64500
C          6.56700       13.26300       15.35800
C          5.40300       16.34200       15.00200
C          5.99300       16.98300       16.09700
C          5.17800       17.62700       17.02500
C          3.82800       17.71300       16.87300
C          3.25500       17.07000       15.77700
C          4.03800       16.43200       14.86800
C          7.03300       19.44500       12.36200
C          6.20300       19.61600       13.47300
C          5.74500       20.87100       13.83700
C          6.09800       21.97900       13.11000
C          6.91500       21.82800       12.02400
C          7.38700       20.54200       11.62600
C          8.86400       18.05000       10.73600
C          8.59500       17.81800        9.39600
C          9.50700       18.10800        8.42300
C         10.73200       18.65900        8.76500
C         11.01300       18.88900       10.07300
C         10.09600       18.62000       11.07300
C          7.67400       15.50900        5.41500
H          2.74600       18.12100       12.75500
H          3.14000       20.32000       11.94400
H          4.44700       20.66400        9.97500
H          5.48600       18.88500        8.81500
H          5.61200       15.93800        8.74100
H          6.00100       13.70700        8.74000
H          5.85000       11.43500        7.98000
H          3.95600       10.14300        8.56500
H          2.36200       10.94600       10.13100
H          2.60400       13.20900       11.00300
H          8.27400       15.78000       14.98600
H          8.66800       15.20200       13.51100
H          8.24500       17.93900       14.26900
H          9.47000       17.32900       13.37800
H          5.48900       13.21600       12.23900
H          5.20600       10.88400       12.78200
H          5.88400       10.08300       14.87700
H          6.72200       11.55900       16.54200
H          6.91400       13.89300       16.05200
H          6.98700       16.97800       16.21200
H          5.60000       18.04400       17.83100
H          3.26700       18.21900       17.52700
H          2.26100       17.08100       15.66000
H          3.60400       16.00900       14.07200
H          5.93500       18.81700       14.01400
H          5.15100       20.97100       14.63500
H          5.76500       22.88500       13.37300
H          7.19400       22.63500       11.49800
H          7.97100       20.44400       10.81900
H          7.71000       17.43100        9.13600
H          9.29200       17.92000        7.46400
H         11.40000       18.88500        8.05600
H         11.90700       19.26300       10.32000
H         10.31000       18.83200       12.02600
H          8.60100       15.87200        5.32300
H          7.31200       15.28700        4.51000
