89
C:\Users\Javier\OneDrive - Universitat de Barcelona\Tesi\4 - Contribucions\Treballs\3-PhD\chapter_1\cif\pc2p\SASXAL.pc2p.pdb
Ru         2.92700        2.09900        1.63000
P          1.32500        3.42000        0.79700
P          4.27100        3.83600        1.23700
C          2.29200        2.94000        3.34100
C          1.42200        2.42600        4.56100
C          1.96400        3.76500        4.30400
C          1.88100        5.08400        4.93600
C          2.56300        6.15900        4.44300
C          2.46700        7.38700        5.07500
C          1.67400        7.54100        6.17800
C          1.01800        6.46400        6.67300
C          1.09700        5.23200        6.04200
C          2.00700        1.51400        5.52800
C          1.55200        0.23500        5.71900
C          2.09500       -0.75500        6.55700
C          3.27500       -0.51400        7.28900
C          3.69600        0.76300        7.16700
C          3.10000        1.71900        6.32900
C          3.32100        5.20300        0.48000
C          1.85700        5.14300        0.91500
C         -0.29300        3.39100        1.63400
C         -0.95500        4.54600        2.03100
C         -2.18100        4.42700        2.71600
C         -2.71700        3.24500        2.99500
C         -2.04000        2.09300        2.61200
C         -0.85600        2.18600        1.94800
C          0.82000        3.29900       -0.95600
C          1.52700        2.51300       -1.83600
C          1.20700        2.46700       -3.18100
C          0.19900        3.24100       -3.64700
C         -0.55000        3.97500       -2.79300
C         -0.23000        4.00200       -1.47100
C          5.62700        3.55400        0.05200
C          6.94000        3.54200        0.45100
C          7.96900        3.30400       -0.44000
C          7.71200        3.04900       -1.74100
C          6.38400        3.01500       -2.14000
C          5.38400        3.24400       -1.25300
C          5.15100        4.62500        2.61600
C          5.31800        3.91200        3.79400
C          6.01700        4.44700        4.87200
C          6.52900        5.71400        4.76300
C          6.39900        6.40300        3.60900
C          5.71000        5.88300        2.53000
C          2.43400        0.11700        0.70100
C          2.35800       -0.02500        2.09700
C          3.65500        0.22500        2.59800
C          4.49600        0.51800        1.54300
C          3.75700        0.43300        0.35900
F          0.47300       -0.15700        4.98000
F          1.52300       -1.94100        6.60500
F          3.83800       -1.41400        8.11800
F          4.74000        1.18300        7.90600
F          3.63300        2.98300        6.36400
H          0.44400        2.29000        4.35800
H          3.15100        6.08800        3.63000
H          2.99200        8.19900        4.74800
H          1.56700        8.39700        6.58300
H          0.48000        6.57900        7.53200
H          0.56700        4.46800        6.41400
H          3.37400        5.16400       -0.49400
H          3.72300        6.07100        0.71600
H          1.77900        5.48800        1.82100
H          1.30600        5.73600        0.36400
H         -0.55400        5.47700        1.80800
H         -2.61700        5.28900        2.97900
H         -3.55300        3.26800        3.47400
H         -2.45600        1.19400        2.84900
H         -0.40300        1.34400        1.69100
H          2.28800        1.95700       -1.47000
H          1.75700        1.90900       -3.79900
H          0.01000        3.29400       -4.63100
H         -1.36700        4.49100       -3.13500
H         -0.78800        4.56600       -0.83300
H          7.17200        3.74900        1.39200
H          8.89700        3.29900       -0.07800
H          8.45200        2.92300       -2.36800
H          6.20400        2.86600       -3.09600
H          4.42900        3.16300       -1.57400
H          4.94800        2.98800        3.87700
H          6.13200        3.94500        5.73700
H          7.04800        6.13500        5.47700
H          6.73900        7.34200        3.53900
H          5.64000        6.38500        1.67800
H          1.68800        0.04600        0.05200
H          1.55400       -0.28700        2.64100
H          3.90600        0.20700        3.53900
H          5.46600        0.73800        1.62600
H          4.11800        0.56500       -0.54600
