90
C:\Users\Javier\OneDrive - Universitat de Barcelona\Tesi\4 - Contribucions\Treballs\3-PhD\chapter_1\cif\pc2p\SEKMIG.pc2p.pdb
Ru        -0.82500        2.84900        9.60500
P          0.76400        3.89200        8.38900
C          2.23800        4.59000        9.19800
C          0.16500        5.30400        7.41500
C          1.43500        2.75800        7.11700
C          0.28600        1.96600        6.51000
P         -0.85900        1.41500        7.84200
C         -0.39800       -0.32700        8.08800
C         -2.44700        1.27600        6.96400
C         -1.79700        4.69300       10.46300
C         -1.58900        3.77200       11.51200
C         -2.37300        2.61900       11.23700
C         -3.04800        2.84800       10.03500
C         -2.72600        4.12600        9.55100
B          0.56900        1.84400       10.41900
N          1.55400        1.17800       11.08000
C          1.63600       -0.28200       11.17500
C          2.60600        1.87600       11.82600
C          5.34000       -0.89300       11.06800
C          5.99900        0.17300       10.49700
C          6.47000        1.22100       11.28300
C          6.28100        1.25400       12.67400
C          5.63400        0.14100       13.21300
C          5.17100       -0.91700       12.42800
C          5.19700        2.35300       17.72600
C          4.38000        2.32700       16.61000
C          4.93500        2.37000       15.34000
C          6.33000        2.43000       15.11100
C          7.11300        2.47100       16.27100
C          6.56500        2.43600       17.55000
C          8.52900        2.27300       13.50600
C          9.09900        1.12400       14.08000
C         10.44900        0.84400       14.02400
C         11.30800        1.70300       13.36300
C         10.79300        2.82500       12.74900
C          9.43800        3.09700       12.82200
C          7.04400        5.13400       13.60100
C          6.47900        3.98900       13.02700
C          5.49500        4.23200       12.06900
C          5.08100        5.52500       11.72800
C          5.65800        6.61600       12.31900
C          6.65700        6.42700       13.25900
B          6.90500        2.50000       13.57200
H          2.83000        3.86100        9.45200
H          1.94700        5.10200        9.94800
H          2.65200        5.17000        8.58200
H         -0.53800        4.97000        6.81600
H         -0.20500        5.94600        8.05400
H          0.87800        5.70600        6.89800
H          1.98600        2.10600        7.58500
H          1.91500        3.25400        6.43200
H         -0.21500        2.51200        5.86300
H          0.68400        1.17100        6.06600
H         -0.85900       -0.74000        8.81200
H          0.51300       -0.37700        8.27500
H         -0.56100       -0.83900        7.26800
H         -3.01300        0.81500        7.53000
H         -2.73200        2.13400        6.73800
H         -2.33800        0.79100        6.16400
H         -1.40900        5.59200       10.44700
H         -1.03600        3.92000       12.30600
H         -2.39500        1.79100       11.80200
H         -3.76400        2.27300        9.65100
H         -2.94000        4.49700        8.64500
H          2.34400       -0.59100       11.64600
H          0.83000       -0.64900       11.48100
H          1.72300       -0.63400       10.33200
H          3.19700        1.24200       12.24100
H          2.23400        2.48000       12.45100
H          3.16300        2.40100       11.19000
H          5.01000       -1.60600       10.52600
H          6.11600        0.16800        9.55900
H          6.96100        1.96100       10.88700
H          5.50900        0.09200       14.17800
H          4.72500       -1.66600       12.82800
H          4.82000        2.26800       18.61500
H          3.42800        2.33400       16.70800
H          4.33000        2.35200       14.62200
H          8.06600        2.50400       16.19900
H          7.11800        2.49100       18.31400
H          8.54900        0.53500       14.52400
H         10.76800        0.06400       14.43000
H         12.26300        1.49900       13.31200
H         11.38900        3.39100       12.24500
H          9.07900        3.85500       12.38900
H          7.74900        5.02200       14.26500
H          5.11700        3.47300       11.64100
H          4.37500        5.62200       11.10300
H          5.41700        7.47500       12.03600
H          7.06100        7.17900       13.68500
