80
C:\Users\Javier\OneDrive - Universitat de Barcelona\Tesi\4 - Contribucions\Treballs\3-PhD\chapter_1\cif\pc2p\SEKRIK.pc2p.pdb
Ru         2.08100        4.77700        6.28600
P          2.29600        4.84200        4.02400
P          4.16500        5.70900        6.26200
S          3.05900        2.57900        6.01600
O          2.08400        0.36700        5.00800
O          0.62400        1.59700        6.18500
C          1.84500        1.37000        5.63000
C         -0.37100        0.57700        5.94900
H         -0.38900        0.36700        4.98200
H         -1.25900        0.93800        6.19300
C         -0.13700       -0.71800        6.72600
H         -0.71700       -1.41600        6.32900
H          0.79900       -0.99700        6.57200
C         -0.37700       -0.71600        8.22700
H         -1.25200       -0.29200        8.40800
H         -0.42800       -1.65400        8.54300
C          0.65600       -0.01500        8.99100
H          0.44200       -0.06000        9.94700
H          0.69100        0.92200        8.70800
H          1.52400       -0.43900        8.83100
C          1.46200        5.31700        8.37000
H          2.06400        5.39700        9.16500
C          0.74900        4.16100        7.97200
H          0.77700        3.27500        8.43800
C         -0.06100        4.47500        6.85400
H         -0.71300        3.86400        6.40400
C          0.16800        5.84500        6.54000
H         -0.30600        6.37100        5.83300
C          1.11500        6.36300        7.46500
H          1.41600        7.31400        7.52600
C          4.07400        5.08300        3.59300
H          4.56400        4.22900        3.69100
H          4.15700        5.38500        2.65400
C          4.66200        6.13100        4.53100
H          4.32300        7.02900        4.29100
H          5.65000        6.13800        4.45300
C          1.79000        3.40400        3.02300
C          0.46900        2.96500        3.13200
H         -0.12300        3.40000        3.73400
C          0.01400        1.90300        2.37100
H         -0.89200        1.62300        2.44300
C          0.87000        1.24800        1.50900
H          0.55700        0.51400        0.99300
C          2.17700        1.65800        1.39500
H          2.76600        1.20400        0.80400
C          2.64500        2.74100        2.14400
H          3.54700        3.02500        2.05600
C          1.43200        6.19800        3.12300
C          1.00200        6.05200        1.79600
H          1.18300        5.24500        1.32900
C          0.31400        7.07400        1.16000
H          0.02800        6.96400        0.26100
C          0.04000        8.25400        1.83300
H         -0.45700        8.94300        1.40600
C          0.49400        8.42900        3.13100
H          0.33500        9.24800        3.58400
C          1.18200        7.40600        3.77000
H          1.48700        7.53100        4.66000
C          4.40900        7.30100        7.14900
C          3.99200        8.51400        6.58800
H          3.54600        8.51300        5.75000
C          4.22000        9.71800        7.24300
H          3.94300       10.53400        6.84400
C          4.85300        9.72800        8.47200
H          5.02500       10.55300        8.91200
C          5.23400        8.53800        9.06300
H          5.64400        8.54400        9.92100
C          5.01800        7.33300        8.40600
H          5.28800        6.52000        8.81700
C          5.55400        4.73600        6.95000
C          6.87800        4.95300        6.57300
H          7.07900        5.59000        5.89600
C          7.90400        4.24500        7.18300
H          8.80200        4.39700        6.91700
C          7.63400        3.32300        8.17000
H          8.34200        2.83900        8.57800
C          6.31800        3.10600        8.56600
H          6.12700        2.48000        9.25500
C          5.28500        3.80200        7.95700
H          4.38700        3.64400        8.22700
