119
C:\Users\Javier\OneDrive - Universitat de Barcelona\Tesi\4 - Contribucions\Treballs\3-PhD\chapter_1\cif\pc2p\SIDBOY.pc2p.pdb
Cl         8.30400        1.78300        7.20400
Cl        11.91500        3.85700        3.75100
Cl         6.74700       11.15400        6.03100
Cl        11.61000        8.86100        5.59400
Cl         1.74800        6.28100        4.09900
Cl         4.43000        5.97500        8.74900
Cl         7.88000        8.46200       -0.64900
Cl         5.18000        3.84500       -0.21400
C          5.23900        1.43300        3.11800
C          4.63200        2.38400        4.14200
C          3.22900        2.78800        3.68000
C          4.59000        1.80600        5.54800
C          7.17800       -0.38700        4.46000
C          6.09800       -1.47400        4.58200
C          6.44400       -2.37600        5.75900
C          5.91000       -2.29200        3.32100
C          7.32300        0.21100        1.60400
C          7.94600        1.22600        0.64500
C          9.51200        3.72500        0.51900
C          9.46100        3.67000       -1.02300
C          9.85100        5.03900       -1.57200
C         10.34300        2.61200       -1.66500
C          8.06900        4.83800        4.53500
C          7.75100        3.82900        5.47900
C          8.71400        2.87300        5.91000
C         10.02800        2.85800        5.42700
C         10.30700        3.76900        4.39300
C          9.34800        4.70400        3.92700
C          5.68600        6.09900        4.92200
C          4.45400        6.18500        4.26000
C          3.25800        6.17900        4.96900
C          3.21000        6.09800        6.34400
C          4.43300        6.04400        7.00300
C          5.64300        6.04900        6.32700
C          7.91600        7.51500        4.74100
C          7.15700        8.65400        5.07600
C          7.75600        9.79400        5.58400
C          9.12300        9.90000        5.76700
C          9.87000        8.79200        5.41700
C          9.30200        7.63000        4.92700
C          6.96400        6.20100        2.54100
C          7.44700        7.22600        1.72900
C          7.23800        7.18700        0.34600
C          6.54600        6.17200       -0.27600
C          6.07100        5.16200        0.53100
C          6.28300        5.15100        1.90100
P          7.02500        0.99100        3.25400
P          9.20000        2.21600        1.53700
Rh         8.49600        2.64500        3.61200
B          7.14500        6.15900        4.16900
C         10.83800        1.37300        1.43400
C         11.02900        0.11500        2.26800
C         10.78500       -1.13200        1.41000
C         12.44100        0.07800        2.85300
H          5.14700        1.87000        2.26100
H          4.74900        0.61400        3.10100
H          5.18600        3.18800        4.17600
H          2.81600        3.38600        4.31600
H          3.26200        3.22300        2.83500
H          2.68200        2.00100        3.57900
H          4.24000        2.46700        6.16300
H          5.47600        1.51500        5.84800
H          3.99000        1.03300        5.57100
H          8.04300       -0.82600        4.30800
H          7.20500        0.05900        5.32000
H          5.22800       -1.04500        4.77300
H          5.76600       -3.03400        5.84900
H          7.29600       -2.79800        5.58200
H          6.48900       -1.84300        6.55900
H          5.27100       -2.99600        3.48800
H          6.77200       -2.69800        3.09200
H          5.59700       -1.73500        2.58600
H          7.92300       -0.54500        1.73300
H          6.48200       -0.12100        1.27900
H          8.34100        0.76900       -0.10500
H          7.25100        1.83600        0.32300
H         10.39900        4.04300        0.78300
H          8.82400        4.36200        0.78800
H          8.52400        3.49500       -1.30000
H          9.75100        5.03700       -2.53900
H         10.77000        5.16400       -1.32000
H          9.29200        5.73100       -1.17700
H         10.31300        2.71600       -2.63400
H         11.27200        2.71100       -1.34400
H         10.00200        1.73300       -1.43300
H          6.85200        3.78600        5.84600
H         10.69200        2.22600        5.73800
H          9.56600        5.27800        3.18700
H          4.42200        6.27600        3.32400
H          2.40200        6.07700        6.80500
H          6.44600        6.01200        6.80800
H          6.21600        8.63000        4.96100
H          9.52800       10.68600        6.10600
H          9.85800        6.89900        4.73500
H          7.93900        7.94200        2.08800
H          6.40500        6.17900       -1.21200
H          5.95900        4.43300        2.39500
H         11.47700        2.02800        1.79300
H         11.05500        1.20000        0.50400
H         10.39600        0.09600        3.00600
H         10.73300       -1.91200        1.98600
H         11.52300       -1.23500        0.79700
H          9.95000       -1.04000        0.91400
H         12.56100       -0.79200        3.27000
H         13.05500        0.20600        2.12100
H         12.55400        0.78200        3.50100
C         10.75400        1.26600        1.46300
C         11.24200        0.29300        2.52400
C         10.66500       -1.09900        2.27100
C         12.77300        0.23300        2.52400
H         11.46100        1.93500        1.36300
H         10.69300        0.73900        0.64500
H         10.87600        0.59100        3.38500
H          9.99000       -1.29100        2.91800
H         11.37700       -1.73800        2.36500
H         10.27100       -1.15400        1.38700
H         13.04000       -0.32600        3.27300
H         13.12300        1.11500        2.64400
H         13.11800       -0.13300        1.70900
