182
C:\Users\Javier\OneDrive - Universitat de Barcelona\Tesi\4 - Contribucions\Treballs\3-PhD\chapter_1\cif\pc2p\SIJKED.pc2p.pdb
Ru         6.95200       15.40600        7.94800
P          8.70600       16.07400        9.23200
C          8.99200       15.25100       10.86100
C          8.30000       15.64600       12.01100
H          7.68200       16.36500       11.96100
C          8.50500       14.99900       13.23000
H          8.03900       15.29400       14.00300
C          9.38200       13.92900       13.32000
H          9.52200       13.49000       14.15000
C         10.05300       13.50700       12.18100
H         10.64200       12.76300       12.23000
C          9.86900       14.16500       10.96600
H         10.34600       13.87100       10.19800
C         10.39900       15.94900        8.51900
C         10.57500       15.42000        7.24100
H          9.81900       15.12200        6.75000
C         11.84700       15.32400        6.67500
H         11.95100       14.97000        5.79900
C         12.95800       15.74000        7.38700
H         13.82400       15.66900        7.00300
C         12.80200       16.26300        8.66400
H         13.56300       16.54400        9.15600
C         11.52800       16.37700        9.22700
H         11.42700       16.74800       10.09600
C          8.56600       17.88000        9.68700
H          8.37400       17.96000       10.65500
H          9.42800       18.33100        9.50800
C          7.45200       18.57300        8.88700
H          7.80200       18.86900        8.00900
H          7.13000       19.37000        9.37800
P          6.06600       17.37700        8.64500
C          5.18300       17.46400       10.25200
C          5.17900       16.35200       11.09100
H          5.61000       15.55300       10.81400
C          4.55000       16.40400       12.33600
H          4.55300       15.64100       12.90300
C          3.91900       17.57100       12.74600
H          3.48800       17.60500       13.59300
C          3.91700       18.69400       11.91800
H          3.49200       19.49400       12.20200
C          4.54100       18.63700       10.67700
H          4.53200       19.39900       10.11100
C          4.89100       18.23400        7.54500
C          3.52200       17.93600        7.63000
H          3.21100       17.34100        8.30200
C          2.61400       18.50300        6.73800
H          1.69100       18.28700        6.79600
C          3.06100       19.38800        5.76200
H          2.44400       19.78400        5.15800
C          4.41700       19.68900        5.67700
H          4.72200       20.29400        5.01100
C          5.33200       19.11700        6.55300
H          6.25600       19.32500        6.47900
C          7.66500       16.59900        6.52800
C          8.07300       17.35000        5.63500
C          8.50700       18.35700        4.71000
O          8.25500       19.55300        4.90700
C          9.27300       17.95700        3.52100
H          9.56300       18.62500        2.91100
C          9.56900       16.68200        3.27900
H          9.24000       16.05600        3.91200
O         10.27200       16.16000        2.25500
C         10.83000       17.09800        1.32600
H         10.10900       17.62200        0.91800
H         11.31900       16.61500        0.62800
H         11.44300       17.70000        1.79700
C          6.86800       13.69300        6.50300
C          7.31500       13.18000        7.75600
C          6.26300       13.38200        8.72600
C          5.16700       14.00600        8.06000
C          5.53400       14.22300        6.68300
C          7.63600       13.63500        5.21600
H          8.58600       13.79400        5.39400
H          7.29800       14.32000        4.60200
H          7.52400       12.75100        4.80900
C          8.56000       12.38400        7.99000
H          8.38300       11.43900        7.80200
H          8.84200       12.48400        8.92400
H          9.27000       12.70700        7.39700
C          6.26500       12.81500       10.11800
H          5.52500       13.20300       10.63000
H          7.11500       13.03000       10.55700
H          6.15700       11.84100       10.07400
C          3.79700       14.23300        8.63500
H          3.31300       13.38200        8.67200
H          3.30600       14.86400        8.07000
H          3.87800       14.59900        9.54000
C          4.63300       14.76000        5.61200
H          4.02100       14.05400        5.31700
H          5.17200       15.06300        4.85300
H          4.11600       15.51300        5.96800
Ru         9.58600       19.62900       15.83500
P         11.12800       20.30400       17.36100
C         11.26900       19.32300       18.91000
C         10.31000       19.45800       19.92700
H          9.62800       20.11300       19.84100
C         10.34300       18.65100       21.05500
H          9.68900       18.76400       21.73500
C         11.32800       17.67900       21.19600
H         11.34600       17.12300       21.96700
C         12.28400       17.52800       20.20200
H         12.95900       16.86600       20.29400
C         12.25900       18.34200       19.06600
H         12.92000       18.23000       18.39200
C         12.88600       20.37100       16.84000
C         13.23900       19.88800       15.58000
H         12.56500       19.55500       14.99700
C         14.57300       19.88800       15.16900
H         14.80500       19.56900       14.30600
C         15.56000       20.35700       16.02400
H         16.46900       20.33900       15.75000
C         15.22500       20.85400       17.27800
H         15.90200       21.18200       17.85700
C         13.88900       20.86800       17.68200
H         13.65700       21.21700       18.53500
C         10.77100       22.03200       17.97400
H         10.40600       21.99000       18.89300
H         11.61100       22.55600       17.99900
C          9.75800       22.72800       17.05000
H         10.21700       23.08300       16.24800
H          9.32600       23.48200       17.52300
P          8.49100       21.48500       16.55400
C          7.43700       21.36700       18.05000
C          7.29200       20.14000       18.69300
H          7.73900       19.37400       18.35200
C          6.49800       20.02200       19.83400
H          6.39900       19.17900       20.26200
C          5.85300       21.14300       20.34200
H          5.30900       21.06200       21.11700
C          5.99800       22.38200       19.72600
H          5.56500       23.14800       20.08500
C          6.78100       22.49100       18.58000
H          6.87300       23.33400       18.15100
C          7.39600       22.39200       15.40700
C          6.00300       22.26000       15.49400
H          5.62600       21.72600       16.18300
C          5.16100       22.90100       14.58500
H          4.22100       22.79100       14.65000
C          5.70100       23.70100       13.58400
H          5.13000       24.14900       12.97100
C          7.08300       23.84100       13.48500
H          7.45300       24.38900       12.80300
C          7.92800       23.18500       14.38100
H          8.87000       23.27700       14.29600
C         10.38000       20.88300       14.52200
C         10.81500       21.57800       13.60400
C         11.20800       22.37500       12.47400
O         10.95800       23.58000       12.40200
C         11.93000       21.64700       11.40600
H         12.07500       20.71100       11.48700
C         12.37900       22.29800       10.32600
H         12.17200       23.22400       10.28500
O         13.08800       21.80500        9.29300
C         13.47900       20.44300        9.37600
H         14.00900       20.30500       10.18800
H         14.01600       20.20800        8.59000
H         12.68100       19.87500        9.40600
C          9.75300       18.01700       14.27500
C         10.09200       17.44200       15.53200
C          8.93400       17.51000       16.39200
C          7.88600       18.13700       15.65400
C          8.39000       18.48300       14.35100
C         10.63300       18.05100       13.06300
H         11.56800       18.15400       13.34000
H         10.37600       18.80700       12.49400
H         10.53200       17.21500       12.56200
C         11.34700       16.68300       15.85400
H         11.21600       15.73300       15.64700
H         11.55500       16.78500       16.80500
H         12.08700       17.03600       15.31800
C          8.83700       16.83400       17.72900
H          7.97000       17.03800       18.13600
H          9.55600       17.15500       18.31200
H          8.92100       15.86400       17.61200
C          6.43900       18.26800       16.04200
H          5.89600       17.67100       15.48600
H          6.14700       19.19400       15.90700
H          6.33100       18.02600       16.98600
C          7.56600       19.10100       13.26400
H          6.96000       18.42700       12.89000
H          8.15600       19.43800       12.55900
H          7.04200       19.84200       13.63300
