97
C:\Users\Javier\OneDrive - Universitat de Barcelona\Tesi\4 - Contribucions\Treballs\3-PhD\chapter_1\cif\pc2p\SINHIJ.pc2p.pdb
Ru         8.97100        8.25700       11.42000
C          8.19100        8.14700        9.58000
C          7.73100        8.06100        8.45300
C          7.30200        7.86500        7.10700
C          7.91200        8.56300        6.04300
H          8.58300        9.20900        6.23100
C          7.54800        8.32400        4.73300
H          7.97400        8.79800        4.02900
C          6.55500        7.38400        4.44200
C          5.94200        6.68600        5.47800
H          5.27300        6.03900        5.28500
C          6.30700        6.93400        6.78700
H          5.87400        6.46100        7.48700
C          6.13600        7.16400        3.08000
N          5.77800        6.99700        2.00600
P          9.37300        6.07000       11.01100
C         10.30700        5.07000       12.23200
C         10.97200        5.72000       13.25500
H         10.93400        6.66700       13.30800
C         11.70000        5.00900       14.21600
H         12.16800        5.47200       14.90100
C         11.73300        3.62400       14.16200
H         12.20300        3.13200       14.82500
C         11.08000        2.96100       13.14000
H         11.10900        2.01200       13.10100
C         10.38500        3.66700       12.16800
H          9.95800        3.20000       11.45700
C          7.96000        4.97900       10.65900
C          7.46000        4.78800        9.36700
H          7.88200        5.22400        8.63400
C          6.35900        3.97600        9.13700
H          6.03700        3.85500        8.25100
C          5.73100        3.34200       10.19200
H          4.98700        2.77300       10.02900
C          6.18400        3.53300       11.47900
H          5.73800        3.10900       12.20400
C          7.29300        4.34900       11.73000
H          7.59600        4.47900       12.62000
C         10.43700        5.96300        9.51300
H         10.78100        5.04100        9.40400
H          9.91500        6.20000        8.70600
C         11.59100        6.93900        9.69800
H         12.03500        7.09600        8.82800
H         12.25800        6.55100       10.31900
P         10.96900        8.56100       10.38400
C         12.40100        9.17000       11.36200
C         13.13500        8.31000       12.19100
H         12.95000        7.37800       12.18400
C         14.13200        8.80000       13.02500
H         14.61400        8.20400       13.58600
C         14.42500       10.16000       13.04200
H         15.10800       10.49700       13.61100
C         13.71200       11.01500       12.22100
H         13.90300       11.94500       12.23500
C         12.71600       10.53000       11.37300
H         12.24900       11.12800       10.80200
C         11.02600        9.71800        8.95700
C         12.14000        9.77700        8.11300
H         12.88100        9.20300        8.27600
C         12.18500       10.65500        7.05100
H         12.93400       10.65900        6.46700
C         11.13700       11.52800        6.83200
H         11.16900       12.13700        6.10500
C         10.03700       11.51300        7.67500
H          9.32400       12.12600        7.53500
C          9.97000       10.60700        8.72300
H          9.20400       10.58900        9.28300
C          7.13200        8.48000       12.65000
C          8.23000        8.18200       13.54200
C          9.17500        9.23500       13.45500
C          8.67600       10.21500       12.51400
C          7.41000        9.75200       12.04200
C          5.85600        7.71200       12.51900
H          5.21200        8.03300       13.18500
H          6.03000        6.75900       12.66700
H          5.48600        7.84000       11.62000
C          8.22400        7.05600       14.53600
H          9.13900        6.88900       14.84500
H          7.87000        6.24700       14.11100
H          7.66000        7.29700       15.30000
C         10.39100        9.41800       14.31400
H         10.17600       10.01100       15.06400
H         11.11300        9.81500       13.78100
H         10.68000        8.54700       14.66000
C          9.28000       11.55600       12.26400
H          9.02800       11.86500       11.36900
H         10.25500       11.49200       12.32700
H          8.95000       12.19200       12.93400
C          6.49700       10.47900       11.10900
H          5.73500       10.83700       11.61100
H          6.17200        9.86000       10.42100
H          6.98300       11.21400       10.68200
Cl         7.93100        3.32900       15.19300
Cl         5.16200        2.40100       15.18800
C          6.23000        3.77500       15.39200
H          6.09700        4.16000       16.29400
H          5.99700        4.47100       14.72700
