38
C:\Users\Javier\OneDrive - Universitat de Barcelona\Tesi\4 - Contribucions\Treballs\3-PhD\chapter_1\cif\pc2p\SIRVEU.pc2p.pdb
Rh         3.35800        6.05800        4.33800
P          4.67900        5.20900        5.88900
P          4.97300        5.52800        2.91200
C          0.39800        5.84600        2.66800
C          0.47700        4.78100        3.71900
C          0.15600        5.39100        5.10400
C          1.14000        8.54700        2.18600
C          1.86900        8.30600        0.81100
C         -0.42200        8.75900        1.83800
C          1.65300        9.79200        2.93200
C          3.08900        9.70100        3.39300
C          1.55100       11.14200        2.06800
C         -0.36400        3.54100        3.40100
C          0.60900        7.66200        6.65500
C          1.49000        8.94800        6.71900
C          0.96300        6.68700        7.98200
C         -0.86600        7.96200        6.79000
C         -1.29700        8.67700        5.55900
C         -1.24800        8.84000        8.07900
C          6.41300        4.91100        5.23900
C          6.34500        4.60500        3.71500
C          5.08900        6.34100        7.36700
C          5.47600        7.73600        6.84800
C          6.21200        5.78900        8.24900
C          4.21400        3.50700        6.56100
C          3.12400        3.86900        7.71900
C          3.91200        2.54800        5.44100
C          5.79900        6.97100        2.10000
C          6.37300        7.91400        3.09000
C          6.90300        6.56600        1.07200
C          4.62500        4.39400        1.41300
C          3.75800        5.18600        0.36300
C          3.94100        3.15400        1.85500
B          1.28900        7.16200        3.06300
B          1.01500        6.71400        5.39200
H          2.56300        6.87400        3.09000
H          2.14200        6.72100        5.44100
H          0.90600        7.50000        4.15800
