147
C:\Users\Javier\OneDrive - Universitat de Barcelona\Tesi\4 - Contribucions\Treballs\3-PhD\chapter_1\cif\pc2p\SITLAI.pc2p.pdb
Rh         5.42500       11.08600        5.44300
P          4.00300        9.85800        4.25800
P          4.52000       10.10800        7.22300
O          5.22300       14.07900        3.48800
O          6.28400       12.30800        2.36900
O          4.21100       13.26600        1.41500
O          6.20900       14.48900        1.25200
C          5.85300       13.31600        4.35900
C          6.53200       12.25000        3.69700
C          7.43400       11.41400        4.35900
C          7.60800       11.60000        5.74600
C          6.83600       12.55000        6.42300
C          5.95700       13.44400        5.74200
C          4.21900       14.03800        0.29200
C          5.41000       14.73900        0.18500
C          5.66600       15.55500       -0.89700
C          4.65100       15.71300       -1.83100
C          3.46800       15.05300       -1.70300
C          3.20200       14.16400       -0.63100
C          2.78200        8.99700        5.35000
C          3.33200        8.75800        6.74700
C          4.72500        8.48500        3.23500
C          5.58500        7.55900        4.07200
C          5.49100        8.99900        2.02900
C          2.96700       10.76800        3.03500
C          2.28500       11.96900        3.69700
C          1.95300        9.91700        2.27300
C          3.56100       11.25300        8.31500
C          2.45000       11.95700        7.56600
C          3.00000       10.62300        9.61500
C          5.65400        9.20900        8.40700
C          6.52600       10.16900        9.24300
C          6.50700        8.18700        7.70100
B          5.47100       13.55200        2.11600
H          7.91300       10.72900        3.88600
H          8.24300       11.07200        6.23400
H          6.90700       12.61000        7.37900
H          5.44600       14.10600        6.21200
H          6.51600       15.98800       -1.01000
H          4.77400       16.30800       -2.57600
H          2.78000       15.22500       -2.34900
H          2.38300       13.67100       -0.55100
H          2.53700        8.15600        4.95800
H          1.98700        9.53200        5.42100
H          2.61500        8.73000        7.38500
H          3.78200        7.91200        6.76700
H          3.99600        7.95800        2.90000
H          5.08400        7.19100        4.80300
H          6.32500        8.07700        4.39600
H          5.94100        6.85900        3.52100
H          5.90800        8.26300        1.57600
H          6.17300        9.60800        2.32300
H          4.91200        9.45300        1.41500
H          3.56800       11.12100        2.37300
H          1.82200       12.49800        3.04400
H          2.94500       12.50700        4.14100
H          1.66700       11.65000        4.35900
H          1.26300        9.59900        2.86100
H          2.44100        9.19400        1.87000
H          1.59900       10.44500        1.55500
H          4.17000       11.94100        8.59200
H          2.82400       12.44300        6.82800
H          1.98500       12.57300        8.13900
H          1.82200       11.31500        7.22900
H          2.51700       11.25100       10.15500
H          3.75200       10.25000       10.08300
H          2.44900        9.88500        9.34500
H          5.09400        8.73500        9.02300
H          7.05000       10.70300        8.64200
H          7.11700        9.68800        9.82800
H          5.97000       10.74300        9.77200
H          7.07800        8.65000        7.08300
H          5.97400        7.56000        7.20500
H          7.06300        7.70900        8.32200
Rh         3.60400        2.40200        3.58000
P          5.36500        1.45600        4.56900
P          4.38600        1.49100        1.70900
O          3.57800        5.21600        5.71800
O          2.55300        3.36400        6.75000
O          4.62900        4.24800        7.70800
O          2.66400        5.49100        7.97300
C          2.97000        4.43600        4.80500
C          2.33900        3.33600        5.42800
C          1.51800        2.44000        4.72500
C          1.36500        2.68300        3.33600
C          2.02700        3.73500        2.70900
C          2.84700        4.65000        3.42900
C          4.70600        4.98800        8.84000
C          3.53600        5.72200        9.00100
C          3.32500        6.54700       10.09800
C          4.36900        6.63100       10.98900
C          5.53100        5.94400       10.84100
C          5.72000        5.07600        9.74800
C          6.40600        0.59400        3.35500
C          5.87500        0.45200        2.04200
C          5.04200        0.14900        5.84000
C          4.07600       -0.94200        5.25200
C          4.46100        0.70300        7.10900
C          6.46200        2.59200        5.50000
C          6.80100        3.79300        4.76600
C          7.72700        1.92000        6.04900
C          4.89900        2.68300        0.39600
C          5.88800        3.71200        0.92100
C          5.43600        2.05100       -0.89500
C          3.27800        0.29100        0.83200
C          2.12400        1.01000        0.07600
C          2.74000       -0.77900        1.78500
B          3.34900        4.57200        7.06100
H          1.10000        1.69800        5.16900
H          0.78600        2.11500        2.82200
H          1.93000        3.83800        1.75900
H          3.29300        5.38000        2.98900
H          2.51400        7.05100       10.19200
H          4.24800        7.18400       11.76400
H          6.23200        6.06500       11.48700
H          6.52000        4.55500        9.64500
H          6.60000       -0.28200        3.69500
H          7.24000        1.06600        3.29000
H          6.55500        0.66000        1.39800
H          5.63600       -0.47000        1.93100
H          5.88200       -0.26600        6.05100
H          3.90700       -1.62200        5.90900
H          3.24500       -0.54600        4.98200
H          4.50800       -1.33600        4.49000
H          4.73100        0.11500        7.82100
H          3.50300        0.72000        7.08300
H          4.79000        1.58300        7.30700
H          5.96700        2.87600        6.27300
H          7.38300        4.34300        5.29500
H          7.24100        3.56100        3.94500
H          5.99500        4.27600        4.57000
H          8.25800        2.56200        6.52300
H          7.48200        1.20700        6.64500
H          8.23200        1.56300        5.31500
H          4.10200        3.14900        0.13700
H          5.78300        4.63100        0.66200
H          6.67200        3.22000        0.66600
H          5.75700        3.44700        1.83500
H          5.30100        1.10400       -0.97300
H          6.34900        2.34600       -0.88400
H          5.01600        2.59400       -1.56500
H          3.81800       -0.16300        0.18100
H          1.47100        1.32700        0.70300
H          2.48800        1.76000       -0.39800
H          1.84600       -0.53600        2.04000
H          3.28000       -0.83600        2.57800
H          2.71400       -1.64100        1.36500
