81
C:\Users\Javier\OneDrive - Universitat de Barcelona\Tesi\4 - Contribucions\Treballs\3-PhD\chapter_1\cif\pc2p\SIWKAM.pc2p.pdb
Ru         8.66900        4.36500       12.30400
P          8.26800        6.44800       11.49000
C          7.93800        7.82200       12.67700
C          7.68400        9.13000       12.22900
C          7.44600       10.15200       13.14300
C          7.46600        9.89300       14.50400
C          7.67700        8.61400       14.95300
C          7.92000        7.57800       14.04700
C          9.47100        7.22700       10.35200
C         10.83700        6.99800       10.52000
C         11.76800        7.64000        9.70600
C         11.35200        8.50300        8.71000
C          9.99400        8.71800        8.51500
C          9.05600        8.08500        9.32500
C          6.71700        6.39100       10.49100
C          5.66200        5.62500       11.29500
P          6.43500        4.10500       12.02800
C          5.51700        3.84300       13.59500
C          5.27600        4.91100       14.46200
C          4.65400        4.71400       15.68900
C          4.28900        3.42900       16.08300
C          4.53400        2.36200       15.24500
C          5.13500        2.56100       14.00200
C          5.81600        2.71800       11.00000
C          6.62800        1.60900       10.81100
C          6.16500        0.50100       10.10200
C          4.88600        0.51400        9.54800
C          4.07400        1.61500        9.71900
C          4.51800        2.71500       10.46300
C          8.95000        3.96700       10.37600
C          9.17200        3.73100        9.19800
C          9.49300        3.50900        7.82600
O          9.17200        4.20800        6.89000
O         10.23100        2.39100        7.65200
C         10.63900        2.11700        6.30000
C         10.73500        3.92100       13.09500
C         10.07800        4.75400       14.02300
C          8.94300        4.07900       14.52600
C          8.89800        2.81000       13.90700
C          9.99600        2.69900       13.01400
H          7.66500        9.31200       11.29800
H          7.28400       11.03500       12.82600
H          7.29900       10.58800       15.13600
H          7.66800        8.41700       15.89600
H          8.09500        6.70200       14.38000
H         11.12400        6.39100       11.19900
H         12.70500        7.47500        9.84500
H         11.99100        8.94500        8.15200
H          9.69900        9.31400        7.82900
H          8.11900        8.22300        9.18500
H          6.40700        7.27100       10.30400
H          6.87200        5.93800        9.66200
H          4.94200        5.38200       10.73500
H          5.34300        6.18900       11.99800
H          5.53300        5.80300       14.20900
H          4.47900        5.46500       16.25700
H          3.88500        3.30200       16.94600
H          4.28400        1.47500       15.52000
H          5.27700        1.81500       13.41100
H          7.51700        1.62600       11.14700
H          6.71000       -0.29400       10.05300
H          4.58200       -0.23500        9.04900
H          3.20100        1.62400        9.33100
H          3.93700        3.46200       10.61000
H         11.14100        1.31900        6.24500
H         11.14700        2.84100        5.94500
H          9.85000        2.01500        5.74000
H         11.52300        4.13400       12.59700
H         10.35800        5.63200       14.26300
H          8.31500        4.40400       15.17000
H          8.22900        2.13100       14.05800
H         10.17700        1.92800       12.49500
C         11.24400        9.34700       13.13700
Cl        12.23700        8.08400       13.90000
Cl        11.86600       10.88100       13.21300
H         10.40900        9.38500       13.60600
H         11.11600        9.16300       12.24300
Cl        12.75600        8.95100       13.02800
Cl        11.04000       10.88200       13.96800
H         11.02500        9.43100       12.20800
H         10.61800        8.73900       13.53500
