78
C:\Users\Javier\OneDrive - Universitat de Barcelona\Tesi\4 - Contribucions\Treballs\3-PhD\chapter_1\cif\pc2p\SIXCEJ.pc2p.pdb
Ru        10.36000        4.96600        8.09200
P         10.86900        4.77500       10.27600
C         11.76700        3.24800       10.76200
C         13.06000        3.27300       11.30500
C         13.66600        2.11300       11.76400
C         13.01600        0.89300       11.66100
C         11.77200        0.85200       11.07600
C         11.14700        2.01400       10.63500
C         11.96500        6.03800       11.02600
C         12.07400        6.22200       12.39400
C         13.02700        7.10900       12.91000
C         13.85600        7.80500       12.05100
C         13.75400        7.63800       10.68100
C         12.80500        6.76000       10.16800
C          9.35300        4.65800       11.35500
C          8.05000        4.85100       10.58400
P          8.25700        4.52500        8.76900
C          7.67300        2.79000        8.55200
C          7.54600        1.90800        9.60500
C          7.12600        0.59500        9.39200
C          6.84700        0.16300        8.09000
C          6.95500        1.03100        7.04000
C          7.36000        2.35900        7.25700
C          6.84400        5.43800        8.02600
C          5.53200        5.13100        8.40600
C          4.46500        5.84500        7.86500
C          4.70500        6.85900        6.95300
C          6.00000        7.16900        6.56900
C          7.07100        6.44600        7.10600
C          9.96600        6.97700        8.50600
O          9.60100        7.07400        9.84800
C          9.26900        8.28700       10.48700
C         10.03700        8.17800        7.87500
O         10.16600        7.78000        5.48200
C         10.15700        8.50400        6.47200
O         10.25500        9.85500        6.33800
C         10.33900       10.34500        4.99400
C         12.08700        5.13000        6.67300
C         12.24400        3.94900        7.44000
C         11.18100        3.08900        7.16300
C         10.34300        3.73300        6.20500
C         10.90900        5.00700        5.89400
H         13.51900        4.11000       11.35600
H         14.55200        2.17200       12.14000
H         13.43000        0.08800       11.97600
H         11.30400        0.01800       11.01500
H         10.29200        1.96200       10.20900
H         11.50900        5.73800       12.97700
H         13.08200        7.23400       13.84700
H         14.50000        8.40100       12.41300
H         14.31700        8.13300       10.08800
H         12.73800        6.64000        9.22900
H          9.33500        3.79500       11.76600
H          9.40500        5.32100       12.03500
H          7.75500        5.74500       10.69900
H          7.39500        4.25400       10.92500
H          7.76100        2.19900       10.49500
H          7.01400       -0.02000       10.13200
H          6.58000       -0.73100        7.93200
H          6.74800        0.72900        6.16000
H          7.43900        2.95900        6.53200
H          5.37700        4.43600        9.03800
H          3.57100        5.62200        8.10800
H          3.98200        7.35500        6.58700
H          6.16000        7.86700        5.95500
H          7.96300        6.64500        6.84600
H          8.52800        8.68400       10.04500
H         10.01600        8.87900       10.43700
H          9.04500        8.12600       11.39900
H         10.00100        8.93600        8.45500
H         10.41900       11.28400        5.00900
H          9.57700       10.07800        4.51600
H         11.12300        9.96900        4.58400
H         12.68500        5.87900        6.68400
H         12.95600        3.78400        8.05100
H         11.04600        2.22000        7.55500
H          9.54200        3.38300        5.83800
H         10.57400        5.64900        5.28800
