87
C:\Users\Javier\OneDrive - Universitat de Barcelona\Tesi\4 - Contribucions\Treballs\3-PhD\chapter_1\cif\pc2p\SOLTAO.pc2p.pdb
Pd         6.99400        4.96100        6.56900
P          7.87100        7.06200        6.17700
P          8.91600        4.42800        7.73000
C          5.48700        3.47200        6.47300
C          5.00800        4.62000        5.81900
C          4.04300        5.51400        6.44400
C          3.31900        6.44100        5.83900
C          9.39900        7.20900        7.24000
C         10.08200        5.86600        7.51900
C          6.88600        8.55600        6.68700
C          6.19700        8.31800        8.02600
C          5.27400        9.47800        8.39700
C          6.02600       10.79800        8.42100
C          6.72700       11.04800        7.10600
C          7.63200        9.87800        6.71000
C          8.42400        7.51500        4.46500
C          7.22700        7.51700        3.51100
C          7.61600        7.87200        2.07900
C          8.70300        6.95600        1.56300
C          9.88500        6.95100        2.49700
C          9.50300        6.58100        3.92400
C          8.78600        4.22600        9.57100
C          8.00400        5.39400       10.18000
C          7.80500        5.23000       11.69200
C          7.14800        3.90400       12.02700
C          7.93700        2.74400       11.44900
C          8.12000        2.89500        9.93100
C          9.96700        2.98600        7.21300
C         10.10800        2.96100        5.68700
C         10.87700        1.73500        5.21300
C         12.23700        1.64800        5.87700
C         12.11500        1.65700        7.38900
C         11.34300        2.89100        7.87700
H          5.15400        3.31400        7.35100
H          5.80500        2.70900        5.99400
H          5.04300        4.68500        4.86300
H          3.91400        5.41800        7.37000
H          3.53600        6.58100        4.93800
H          2.80300        7.01100        6.31400
H         10.01500        7.77600        6.84200
H          9.08700        7.64900        8.06700
H         10.66800        5.65700        6.78500
H         10.66700        5.97600        8.33100
H          6.17000        8.65300        6.01300
H          6.82900        8.20700        8.70800
H          5.73200        7.56900        7.95400
H          4.53600        9.52900        7.70900
H          4.82100        9.32200        9.23600
H          5.41200       11.50500        8.61400
H          6.71200       10.80400        9.17900
H          7.26000       11.80800        7.08700
H          6.02500       11.20200        6.44600
H          8.37700        9.84800        7.27500
H          8.07400       10.05500        5.91800
H          8.78900        8.38200        4.50500
H          6.91200        6.53300        3.50600
H          6.55000        8.03100        3.82600
H          7.94700        8.76400        1.99800
H          6.88200        7.85600        1.58300
H          8.33300        6.15100        1.41400
H          9.01300        7.33000        0.66000
H         10.59700        6.39000        2.18600
H         10.23200        7.87200        2.56300
H          9.15300        5.72100        3.95800
H         10.25900        6.54900        4.54200
H          9.71200        4.20700        9.87700
H          7.09700        5.43400        9.78200
H          8.40400        6.19900       10.02700
H          8.66800        5.24300       12.12000
H          7.30300        5.91200       12.02500
H          6.21400        3.92000       11.68600
H          7.05800        3.85600       13.00500
H          8.83500        2.72500       11.85600
H          7.52500        1.89600       11.66700
H          7.26300        2.85200        9.51800
H          8.67000        2.18300        9.61300
H          9.41300        2.24700        7.46400
H          9.22400        2.96400        5.29600
H         10.53000        3.79300        5.37200
H         10.37200        0.90800        5.46600
H         10.95600        1.73700        4.22200
H         12.76100        2.31100        5.61700
H         12.71200        0.87600        5.57900
H         13.00100        1.64100        7.78400
H         11.60600        0.86000        7.67100
H         11.86100        3.77700        7.65200
H         11.18900        2.82000        8.82100
