127
C:\Users\Javier\OneDrive - Universitat de Barcelona\Tesi\4 - Contribucions\Treballs\3-PhD\chapter_1\cif\pc2p\SOZTEG.pc2p.pdb
Rh         2.20700        4.46800        4.79600
Cl         4.97700        5.26200        9.88300
Cl         2.25000        4.89900       10.34300
P          4.26800        3.66400        4.87700
P          3.18700        6.43900        4.72300
F          9.05800        1.83400        8.58800
F          9.97300        3.85900        8.38300
F         10.39400        2.75700       10.21900
F          8.50500        3.39200        9.86800
F          9.04600        3.79900        8.84200
F          9.48100        2.54000       10.26800
F         10.88600        2.55200        8.71500
O         -1.47100       -2.03500        7.66400
O         -1.02500       -3.37000        5.54300
O         -4.93000        7.51900        6.82800
O         -5.19800        8.63200        4.50400
O         -0.91800       -5.12100        8.28500
N          1.24600        2.57600        4.80400
N          0.27200        5.31800        4.64600
C          5.42900        4.98800        5.35400
C          5.01400        6.24000        4.82600
C          4.90800        2.99500        3.33200
C          6.17500        2.38500        3.24400
C          6.65000        1.88300        2.05200
C          5.87400        1.94800        0.93800
C          4.61600        2.53500        0.97700
C          4.16400        3.03300        2.19800
C          4.64700        2.32500        6.05700
C          5.35700        2.48800        7.22000
C          5.48000        1.37900        8.11900
C          4.88000        0.18600        7.81600
C          4.19000        0.00900        6.68300
C          4.08400        1.09200        5.80300
C          2.68400        7.61200        6.01800
C          3.30600        7.59800        7.24000
C          2.81100        8.42200        8.27500
C          1.75800        9.17600        8.10900
C          1.11300        9.19800        6.88800
C          1.56700        8.40500        5.84200
C          3.01800        7.42600        3.20500
C          3.27100        8.80500        3.15600
C          3.14300        9.46500        1.95400
C          2.79600        8.83200        0.81100
C          2.54300        7.50400        0.84000
C          2.67000        6.79100        2.03200
C          0.95100        1.87100        5.84000
C          0.31600        0.54800        5.71500
C         -0.33500       -0.06500        6.80100
C         -0.79500       -1.35200        6.68800
C         -0.58800       -2.07900        5.51000
C          0.02500       -1.46600        4.42600
C          0.46100       -0.15600        4.52000
C          1.09900        0.56100        3.36000
C          0.80800        2.05000        3.49500
C          1.25800        2.37200        7.19900
C         -1.82400       -1.31500        8.83200
C         -0.86400       -4.13600        4.35700
C         -0.48200        5.78500        5.57300
C         -1.75700        6.44400        5.27900
C         -2.75600        6.61300        6.24900
C         -3.90300        7.31500        5.95000
C         -4.03900        7.90200        4.69000
C         -3.09700        7.71600        3.72200
C         -1.95800        6.96000        4.00000
C         -0.90100        6.67900        2.97000
C         -0.28200        5.33800        3.27400
C         -0.05400        5.66200        7.00400
C         -4.87600        6.86800        8.06000
C         -5.37800        9.23000        3.22400
C          3.81700        4.11700       10.44400
B          9.62400        2.83400        9.20300
H          5.36300        6.95000        5.40400
H          6.73700        2.31900        4.04400
H          7.53400        1.47300        2.01400
H          6.21200        1.58000        0.09200
H          4.05600        2.59500        0.17600
H          3.27000        3.43000        2.23600
H          5.77800        3.34900        7.43300
H          6.00200        1.47200        8.94300
H          4.95700       -0.55800        8.45200
H          3.77700       -0.85300        6.47700
H          3.59000        0.97000        4.96500
H          4.09400        7.02900        7.38800
H          3.26300        8.41200        9.14800
H          1.43800        9.73300        8.84800
H          0.32400        9.77000        6.76800
H          1.09400        8.41100        4.98800
H          3.54300        9.29000        3.96500
H          3.32400       10.42900        1.92600
H          2.71100        9.33500       -0.02600
H          2.27300        7.04200        0.01600
H          2.50900        5.82300        2.03800
H         -0.46100        0.42800        7.63800
H          0.14800       -1.96200        3.59200
H          2.06600        0.41100        3.37000
H          0.72400        0.22400        2.51900
H          5.47200        5.04600        6.33200
H          6.32300        4.77400        5.00400
H          5.38100        6.33400        3.92700
H         -0.15600        2.19500        3.40000
H          1.28200        2.53100        2.78400
H          0.97400        1.70900        7.86300
H          2.22200        2.52400        7.28100
H          0.77900        3.21400        7.35200
H         -1.01600       -0.97300        9.26600
H         -2.41000       -0.56500        8.59200
H         -2.29900       -1.91100        9.45100
H         -1.22200       -5.03500        4.50400
H         -1.34100       -3.70400        3.62400
H          0.09200       -4.19600        4.14100
H         -2.63700        6.22900        7.14300
H         -3.21900        8.11400        2.83500
H         -1.30800        6.66200        2.08200
H         -0.21500        7.37600        3.00800
H          0.44000        5.16700        2.63300
H         -0.96400        4.64100        3.19200
H          0.05500        4.71600        7.23400
H          0.79900        6.12800        7.13100
H         -0.73400        6.06200        7.58400
H         -5.64200        7.13600        8.60800
H         -4.89400        5.89800        7.92200
H         -4.04400        7.11300        8.52200
H         -4.64500        9.85700        3.05500
H         -5.38400        8.53400        2.53900
H         -6.23100        9.71200        3.21200
H          3.82200        3.30700        9.88700
H          4.00000        3.86100       11.37800
