91
C:\Users\Javier\OneDrive - Universitat de Barcelona\Tesi\4 - Contribucions\Treballs\3-PhD\chapter_1\cif\pc2p\SUHLOX.pc2p.pdb
Ru        -0.09900       13.36100       10.95800
P          0.41700       14.87900        9.32700
C         -0.44600       14.89400        7.70600
C         -0.97800       13.70000        7.22300
H         -1.00200       12.93800        7.79000
C         -1.47400       13.60300        5.92900
H         -1.80700       12.77400        5.60500
C         -1.47800       14.72600        5.11300
H         -1.81200       14.66400        4.22700
C         -0.99500       15.94000        5.58800
H         -1.02400       16.71100        5.03600
C         -0.46900       16.02500        6.87600
H         -0.12500       16.85200        7.19300
C          0.46500       16.65100        9.75400
C          1.64900       17.33800       10.01100
H          2.48000       16.88000        9.96500
C          1.62100       18.69300       10.33400
H          2.43400       19.15100       10.51200
C          0.41800       19.37900       10.39900
H          0.40500       20.30600       10.60500
C         -0.76200       18.70300       10.16400
H         -1.59100       19.16300       10.22300
C         -0.74500       17.35000        9.83900
H         -1.56300       16.89700        9.67200
C          2.14700       14.52500        8.78300
H          2.35500       15.03300        7.95900
H          2.78700       14.79700        9.48700
C          2.26500       13.02600        8.51700
H          3.22200       12.77200        8.46600
H          1.84400       12.80800        7.64700
P          1.43900       12.05800        9.86400
C          0.98100       10.54700        8.94000
C         -0.32400       10.38900        8.49000
H         -0.98500       11.02200        8.74400
C         -0.67800        9.31800        7.67300
H         -1.57200        9.22500        7.36600
C          0.28400        8.38900        7.31100
H          0.05000        7.65800        6.75300
C          1.59200        8.52600        7.76200
H          2.24700        7.88300        7.52100
C          1.94200        9.60500        8.56700
H          2.83900        9.70200        8.86500
C          2.79000       11.47300       10.94400
C          3.97600       12.19600       11.08500
H          4.14300       12.94100       10.52300
C          4.91600       11.82700       12.04900
H          5.72200       12.32300       12.13800
C          4.67900       10.74400       12.87200
H          5.31600       10.50600       13.53500
C          3.51400       10.00100       12.73300
H          3.35800        9.24400       13.28600
C          2.57200       10.37800       11.77200
H          1.76900        9.87800       11.68300
C          1.40000       14.17300       11.85500
C          2.33400       14.66200       12.50700
C          3.41800       14.97800       13.27700
C          4.67700       15.40500       12.89500
Cl         5.12500       15.72700       11.27300
C          5.61900       15.48800       13.96400
O          6.80400       15.78000       13.96200
C          4.85800       15.06200       15.23000
F          5.37900       13.89800       15.70000
F          4.97800       15.96600       16.21800
C          3.39900       14.85700       14.78400
F          2.91100       13.66500       15.19700
F          2.60100       15.79900       15.33700
C         -1.35700       13.78600       12.77400
C         -2.19000       13.92200       11.62900
C         -2.28500       12.65000       10.96600
C         -1.49900       11.72900       11.71700
C         -0.90100       12.42200       12.81900
C         -1.09100       14.83200       13.80700
H         -1.08600       15.71700       13.38400
H         -0.22000       14.66600       14.22300
H         -1.79100       14.80200       14.49100
C         -3.02300       15.13000       11.31200
H         -3.83800       15.11600       11.85600
H         -3.26300       15.12100       10.36200
H         -2.51000       15.94100       11.51200
C         -3.26300       12.33700        9.87300
H         -3.05000       11.46200        9.48500
H         -3.20800       13.02600        9.17900
H         -4.17100       12.31800       10.24300
C         -1.44600       10.23600       11.53600
H         -1.99200        9.80400       12.22700
H         -0.51900        9.93000       11.61400
H         -1.79400       10.00200       10.65100
C         -0.10200       11.79200       13.91300
H         -0.70300       11.50200       14.63000
H          0.53800       12.44400       14.26800
H          0.38300       11.01700       13.55800
