112
C:\Users\Javier\OneDrive - Universitat de Barcelona\Tesi\4 - Contribucions\Treballs\3-PhD\chapter_1\cif\pc2p\SUHLUD.pc2p.pdb
Ru         4.23900        5.32900        9.65900
P          2.68200        5.65900        8.07000
C          2.36300        7.33300        7.40500
C          2.95900        8.43000        7.94900
H          3.61000        8.30600        8.63100
C          2.64600        9.75200        7.54000
H          3.07900       10.50700        7.92000
C          1.69400        9.88400        6.57400
H          1.45600       10.75600        6.27900
C          1.07100        8.80700        6.02000
H          0.40500        8.93500        5.35400
C          1.39700        7.55300        6.41600
H          0.96400        6.80800        6.01400
C          2.73400        4.64700        6.52400
C          2.08500        3.43900        6.42900
H          1.55500        3.11300        7.14600
C          2.22800        2.69600        5.24100
H          1.75400        1.88000        5.14500
C          3.03700        3.12800        4.21800
H          3.10900        2.61100        3.42200
C          3.74500        4.30300        4.33600
H          4.34700        4.57900        3.65400
C          3.55500        5.08000        5.48100
H          3.99400        5.92000        5.55200
C          1.05200        5.26000        8.81600
H          0.32300        5.51500        8.19600
H          0.98800        4.29000        8.99400
C          0.92700        6.05500       10.14100
H          0.18100        5.69500       10.68400
H          0.74100        7.01000        9.94800
P          2.51500        5.89800       11.06900
C          2.60900        7.49200       11.97200
C          2.37200        8.71300       11.35400
H          2.08700        8.72000       10.44800
C          2.53200        9.88900       11.99500
H          2.29100       10.69500       11.55300
C          3.03800        9.95000       13.27600
H          3.21300       10.77700       13.70800
C          3.27600        8.74100       13.89700
H          3.58300        8.74600       14.79600
C          3.09400        7.54800       13.28900
H          3.29600        6.74500       13.75500
C          2.06300        4.76300       12.45300
C          2.86700        3.65300       12.75400
H          3.62800        3.46000       12.22100
C          2.55100        2.84500       13.83000
H          3.10800        2.10200       14.04000
C          1.43100        3.10200       14.60600
H          1.21900        2.52700       15.33000
C          0.60600        4.20000       14.33400
H         -0.16900        4.38000       14.85300
C          0.98100        5.01600       13.25800
H          0.45700        5.78800       13.07700
C          3.57900        3.51600        9.61000
C          3.27600        2.30700        9.54100
C          2.92500        0.94600        9.53700
C          3.75800       -0.10600        9.48500
Cl         5.39800       -0.16800        9.37400
C          2.95100       -1.45000        9.55600
F          3.12100       -2.30900        8.54000
F          3.32400       -2.16100       10.65300
C          1.55800       -1.00200        9.93800
F          0.59100       -1.72900        9.34400
F          1.51600       -1.15100       11.31900
C          1.45700        0.49300        9.55200
F          1.32900        0.50400        8.12300
F          0.20800        1.06800        9.88600
C          6.27400        4.75900        8.88400
C          6.07600        6.17500        8.65800
C          5.96400        6.81200        9.90600
C          6.02900        5.80900       10.95000
C          6.24400        4.55500       10.28400
C          6.49600        3.69800        7.84700
H          7.45800        3.57700        7.70800
H          6.07500        3.97400        7.00500
H          6.10000        2.85500        8.15200
C          6.29000        6.84000        7.34100
H          7.19300        7.21900        7.30800
H          5.63100        7.55600        7.22500
H          6.18600        6.18000        6.62200
C          5.94200        8.30400       10.18000
H          5.24200        8.50500       10.83600
H          5.75700        8.78600        9.34700
H          6.81200        8.58500       10.53500
C          6.06200        6.10800       12.37600
H          5.75000        7.02600       12.52200
H          6.97900        6.01800       12.70800
H          5.47900        5.48500       12.85500
C          6.51900        3.28100       11.01200
H          6.07100        2.54000       10.55400
H          6.18200        3.35100       11.93100
H          7.48500        3.11800       11.03100
C          5.29600       -0.21500       14.05600
H          4.40900       -0.33400       13.73500
C          5.59400       -0.62000       15.33600
H          4.93500       -1.03700       15.87900
C          6.84700       -0.41100       15.80600
H          7.06600       -0.67900       16.69200
C          7.80000        0.17800       15.02300
H          8.67600        0.31000       15.36300
C          7.49000        0.57300       13.74300
H          8.15100        1.00500       13.21600
C          6.23300        0.35500       13.21400
H          6.02200        0.58900       12.31600
C          3.17900       -1.39500        9.40100
C          1.68500       -1.08700        9.46900
F          3.35500       -1.87400        8.15200
F          3.66300       -2.44200       10.10600
F          1.13900       -1.51700        8.31000
F          1.18800       -1.72300       10.58300
F          0.53600        1.07400        8.72400
F          0.97700        0.96000       10.82300
