95
C:\Users\Javier\OneDrive - Universitat de Barcelona\Tesi\4 - Contribucions\Treballs\3-PhD\chapter_1\cif\pc2p\SUHMAK.pc2p.pdb
Ru        -0.48400        5.50900       14.12100
P         -0.74500        3.25000       13.95300
C         -2.10300        2.44100       14.88300
C         -1.99100        2.14900       16.23400
H         -1.16300        2.29400       16.67500
C         -3.06600        1.65000       16.95300
H         -2.96900        1.44700       17.87600
C         -4.28400        1.44800       16.31900
H         -5.03400        1.13600       16.81200
C         -4.39600        1.70000       14.97600
H         -5.22200        1.53600       14.53500
C         -3.31700        2.19200       14.24900
H         -3.40800        2.35800       13.31900
C         -0.96700        2.52100       12.29200
C         -1.24800        3.31500       11.19200
H         -1.28500        4.25900       11.28900
C         -1.47700        2.74000        9.94400
H         -1.68800        3.29000        9.19900
C         -1.39800        1.37000        9.78800
H         -1.55200        0.97800        8.93600
C         -1.09400        0.57100       10.87700
H         -1.02200       -0.37000       10.76700
C         -0.89400        1.13600       12.12300
H         -0.70700        0.57900       12.86900
C          0.81100        2.45200       14.53400
H          0.63400        1.50100       14.74700
H          1.48800        2.48300       13.81100
C          1.35400        3.15900       15.77000
H          2.31800        2.95100       15.86800
H          0.88700        2.81800       16.57300
P          1.13200        4.99300       15.66600
C          0.83600        5.46900       17.39800
C         -0.32800        4.99900       18.02300
H         -0.89400        4.38700       17.56600
C         -0.66200        5.41700       19.30100
H         -1.45100        5.09100       19.71500
C          0.14900        6.30400       19.96900
H         -0.09400        6.60700       20.83600
C          1.31700        6.75700       19.38500
H          1.88900        7.34700       19.86200
C          1.65500        6.34700       18.10000
H          2.45300        6.66900       17.69700
C          2.83800        5.61500       15.39600
C          3.07600        6.66700       14.52700
H          2.34700        7.09500       14.09400
C          4.38100        7.10100       14.28100
H          4.53500        7.80500       13.66200
C          5.44400        6.51600       14.93200
H          6.32900        6.81600       14.76500
C          5.21700        5.48700       15.83500
H          5.94600        5.09100       16.29600
C          3.92300        5.03700       16.06500
H          3.77300        4.33100       16.68300
C          0.92500        5.26300       12.85100
C          1.92100        5.15700       12.11600
C          3.11600        5.27600       11.46500
C          4.29000        4.54300       11.59900
Cl         4.45100        3.32200       12.78500
C          5.30700        4.91800       10.71100
C          6.50800        4.32400       10.39600
C          6.91500        3.04000       10.88400
N          7.27600        2.00800       11.22100
C          7.44100        4.94300        9.50400
N          8.21500        5.42000        8.80600
C          4.85700        6.20500       10.06700
F          5.58900        7.24900       10.53400
F          5.01200        6.20700        8.72200
C          3.36600        6.36700       10.46100
F          3.11900        7.58200       11.00300
F          2.57000        6.26100        9.37400
C         -1.62500        7.00200       12.87500
C         -2.57000        6.18000       13.56200
C         -2.40600        6.38300       14.96900
C         -1.36600        7.33900       15.14600
C         -0.87500        7.71600       13.85800
C         -1.50600        7.20300       11.39300
H         -1.80900        8.10600       11.16000
H         -2.06100        6.54300       10.92800
H         -0.57000        7.09300       11.12200
C         -3.69700        5.43100       12.91300
H         -4.05800        4.77300       13.54400
H         -3.36700        4.97100       12.11500
H         -4.40300        6.06100       12.65700
C         -3.28300        5.83000       16.06200
H         -2.76800        5.76600       16.89500
H         -3.60100        4.93900       15.80700
H         -4.05000        6.42400       16.19800
C         -1.00000        7.99400       16.44300
H         -1.59400        8.75700       16.60200
H         -0.07200        8.30500       16.40000
H         -1.09500        7.34800       17.17300
C          0.09800        8.81400       13.56100
H          0.65100        8.56000       12.79500
H          0.67000        8.96300       14.34300
H         -0.39200        9.63700       13.35200
