81
C:\Users\Javier\OneDrive - Universitat de Barcelona\Tesi\4 - Contribucions\Treballs\3-PhD\chapter_1\cif\pc2p\SUJWIF.pc2p.pdb
Ru         3.88100        2.78600        9.00600
P          1.61500        2.95400        8.72200
C          0.60700        4.26200        9.54000
C          1.11000        4.91500       10.66400
H          1.99300        4.72900       10.96100
C          0.32700        5.83800       11.35300
H          0.67100        6.26300       12.13000
C         -0.95300        6.14000       10.91100
H         -1.48500        6.77100       11.38300
C         -1.45400        5.51900        9.77700
H         -2.32500        5.73400        9.46400
C         -0.68100        4.57900        9.09500
H         -1.03300        4.15200        8.32300
C          0.97100        3.04200        7.02200
C          0.14100        2.06400        6.46800
H         -0.07400        1.28600        6.96900
C         -0.37200        2.22200        5.18500
H         -0.94700        1.56000        4.82100
C         -0.05000        3.33700        4.44000
H         -0.41600        3.44700        3.57000
C          0.80900        4.30000        4.95700
H          1.05400        5.05300        4.43300
C          1.30700        4.15500        6.24700
H          1.88200        4.82100        6.60500
C          0.85000        1.41100        9.38800
H         -0.13000        1.52700        9.46800
H          1.02500        0.65500        8.77400
C          1.45200        1.11600       10.76200
H          1.24500        0.18400       11.02500
H          1.05900        1.72300       11.43800
P          3.29500        1.35500       10.69800
C          3.67700        1.81000       12.43600
C          2.92500        2.80300       13.07300
H          2.20600        3.21300       12.60800
C          3.21200        3.20000       14.37200
H          2.68200        3.86900       14.78900
C          4.26600        2.62600       15.06200
H          4.45700        2.88900       15.95400
C          5.03800        1.66200       14.43500
H          5.77700        1.28100       14.89400
C          4.74300        1.24600       13.14200
H          5.27200        0.57100       12.73300
C          3.96200       -0.36000       10.66200
C          4.94900       -0.71500        9.74900
H          5.23500       -0.08900        9.09400
C          5.52100       -1.98500        9.79100
H          6.18500       -2.22600        9.15700
C          5.12600       -2.89800       10.75400
H          5.53500       -3.75400       10.79400
C          4.12800       -2.55900       11.66400
H          3.84200       -3.18800       12.31600
C          3.55200       -1.29800       11.61400
H          2.87100       -1.07000       12.23400
N          3.54700        1.15800        7.63200
N          3.54800        1.30100        6.44900
N          3.55400        1.35600        5.28300
C          5.02500        4.19500        7.72000
C          4.58600        4.88300        8.90100
C          5.17500        4.25200       10.04200
C          6.01700        3.17200        9.56100
C          5.91400        3.14100        8.14900
C          4.79700        4.60400        6.29400
H          5.65300        4.84600        5.88200
H          4.19200        5.37400        6.26800
H          4.39800        3.85800        5.80000
C          3.79900        6.16100        8.90100
H          3.41300        6.30600        9.78900
H          3.08100        6.10200        8.23700
H          4.39100        6.90800        8.67600
C          5.18300        4.78100       11.44800
H          5.89800        5.44500       11.54300
H          5.33800        4.04300       12.07300
H          4.32000        5.20000       11.64500
C          6.95100        2.34600       10.40400
H          7.16300        1.51200        9.93500
H          6.52200        2.13900       11.26100
H          7.77700        2.84900       10.56500
C          6.63000        2.21700        7.21500
H          7.38500        2.68800        6.80400
H          6.01300        1.91800        6.51500
H          6.96100        1.44100        7.71300
