111
C:\Users\Javier\OneDrive - Universitat de Barcelona\Tesi\4 - Contribucions\Treballs\3-PhD\chapter_1\cif\pc2p\SUJWUR.pc2p.pdb
Ru         9.42000        1.97000        4.17200
N          8.47500        2.92100        2.54500
N          7.15600        3.20800        2.50000
C          6.97700        3.95100        1.39900
C          8.21600        4.09700        0.78900
N          9.15200        3.44800        1.53700
C          5.68700        4.60800        1.01400
H          5.85300        5.12500        0.18500
H          5.46200        5.26300        1.72300
C          4.45500        3.74900        0.77900
C          4.34000        2.43100        1.20300
H          5.07500        2.00500        1.62800
C          3.15600        1.73600        1.01000
H          3.08900        0.83300        1.29600
C          2.07700        2.34100        0.41000
H          1.26300        1.86400        0.29400
C          2.18300        3.65200       -0.02700
H          1.44300        4.07600       -0.44600
C          3.35900        4.33400        0.14700
H          3.42900        5.22700       -0.17100
C          8.57400        4.73600       -0.42800
N          8.84600        5.23000       -1.43400
C         11.51100        1.95700        4.97700
C         11.55800        2.26500        3.58200
C         11.04500        1.11300        2.88400
C         10.69000        0.12500        3.83000
C         10.94000        0.66800        5.14300
C         12.16500        2.76700        6.05700
H         11.84300        2.46400        6.93200
H         11.94100        3.71300        5.93500
H         13.13600        2.65200        6.00900
C         12.23300        3.42700        2.94600
H         12.35000        4.13900        3.60700
H         11.68400        3.75600        2.20500
H         13.10900        3.14900        2.60600
C         11.04400        0.96000        1.40000
H         11.93600        0.68700        1.09900
H         10.80700        1.81500        0.98200
H         10.39000        0.27800        1.14400
C         10.34000       -1.30400        3.51300
H          9.82400       -1.33600        2.68200
H          9.80600       -1.67900        4.24300
H         11.16300       -1.82500        3.40800
C         10.91800       -0.11500        6.42700
H         11.81100       -0.47200        6.60900
H         10.28100       -0.85600        6.34600
H         10.64400        0.47200        7.16200
P          7.44900        0.92000        4.67200
C          6.19100        2.10700        5.32300
H          5.68900        2.50500        4.56800
H          5.54700        1.62500        5.90000
C          6.86900        3.21700        6.12700
H          6.99600        2.91100        7.06000
H          6.28200        4.01300        6.14400
P          8.51800        3.68900        5.41000
C          6.50500        0.04900        3.37200
C          7.09000       -0.29100        2.17900
H          7.97500        0.00000        1.98600
C          6.40100       -1.05800        1.24800
H          6.81800       -1.30200        0.43000
C          5.10700       -1.46600        1.51500
H          4.62900       -1.97900        0.87300
C          4.50900       -1.13300        2.70700
H          3.62100       -1.41900        2.89000
C          5.19900       -0.38200        3.63700
H          4.78500       -0.15600        4.46200
C          7.53600       -0.42200        5.92900
C          7.61100       -1.76400        5.54500
H          7.51000       -1.99600        4.63000
C          7.82900       -2.76200        6.48000
H          7.90100       -3.66700        6.19900
C          7.94300       -2.44800        7.82600
H          8.10100       -3.13200        8.46700
C          7.82300       -1.12700        8.22300
H          7.87400       -0.90600        9.14600
C          7.62900       -0.12200        7.28900
H          7.55600        0.78000        7.57700
C          9.29100        4.33600        6.96400
C          9.51600        3.42700        8.00500
H          9.37100        2.50000        7.85700
C          9.94800        3.86500        9.24500
H         10.08000        3.24100        9.94800
C         10.18900        5.21300        9.46000
H         10.47400        5.51700       10.31400
C         10.01300        6.11000        8.42400
H         10.19900        7.03200        8.56200
C          9.57000        5.67800        7.18800
H          9.45500        6.30700        6.48300
C          8.25100        5.25400        4.47900
C          7.03400        5.91500        4.36200
H          6.25700        5.54600        4.76500
C          6.94100        7.10700        3.66000
H          6.10100        7.54200        3.58300
C          8.05200        7.66800        3.07100
H          7.98200        8.49300        2.60300
C          9.27900        7.01700        3.16700
H         10.05400        7.39600        2.76900
C          9.36000        5.80400        3.85300
H         10.19300        5.34700        3.89200
C          0.93900        7.02700        0.90700
H          1.58200        7.34500        1.53100
C         -0.22700        6.43600        1.35400
H         -0.38700        6.35100        2.28800
C         -1.17000        5.96400        0.44500
H         -1.97100        5.55800        0.75700
C         -0.93900        6.08800       -0.90700
H         -1.58200        5.76900       -1.53100
C          0.22700        6.67800       -1.35400
H          0.38700        6.76300       -2.28800
C          1.17000        7.15000       -0.44500
H          1.97100        7.55600       -0.75700
