279
C:\Users\Javier\OneDrive - Universitat de Barcelona\Tesi\4 - Contribucions\Treballs\3-PhD\chapter_1\cif\pc2p\SULMUH.pc2p.pdb
Rh        14.07800        9.12700        2.82200
P         13.21500        6.99700        3.07400
P         15.07500        8.68400        4.81600
O         12.24900        6.85300        0.33400
O         15.43600        7.99500        7.74500
C         14.92400       10.64000        0.63900
C         13.82300        9.58200        0.64400
C         12.80200       10.13100        1.30200
C         13.28100       11.54200        1.74700
C         14.33600       11.27400        2.73500
C         15.37500       10.71900        2.05700
C         14.11800       11.92600        0.49400
C         13.84900        6.31500        4.65200
C         15.23100        6.88600        4.94200
C         13.71000        5.79700        1.81000
C         13.21000        5.90000        0.51800
C         13.65100        5.04100       -0.47000
C         14.61100        4.12200       -0.18400
C         15.16500        4.00900        1.05000
C         14.71600        4.86600        2.05700
C         11.78000        7.11700       -0.99200
C         11.43600        6.79400        3.29700
C         10.68100        7.88300        3.73200
C          9.32800        7.72000        4.03200
C          8.73200        6.46600        3.90200
C          9.48700        5.37500        3.47100
C         10.84000        5.54000        3.16600
C         14.07400        9.18300        6.24500
C         14.35400        8.77500        7.55100
C         13.51300        9.15700        8.59200
C         12.39200        9.94500        8.33600
C         12.11300       10.35400        7.02900
C         12.95300        9.97200        5.98800
C         15.68700        7.36100        9.00400
C         16.68400        9.48200        5.02500
C         17.74500        9.07500        4.21600
C         18.93700        9.79800        4.21600
C         19.06900       10.92700        5.02500
C         18.00900       11.33300        5.83300
C         16.81600       10.61100        5.83300
Rh         0.34500       16.09200        5.47000
P         -0.54600       18.19900        5.35400
P          1.25800       16.60900        3.43200
O         -1.46200       18.16600        8.05500
O          1.85400       16.99700        0.49900
C          1.35500       14.52000        7.53200
C          0.36700       15.65400        7.66300
C         -0.82400       15.23200        7.15900
C         -0.58500       13.80600        6.72400
C          0.37200       13.90100        5.55700
C          1.59800       14.33000        6.01200
C          0.42900       13.31000        7.83700
C         -0.02800       18.98800        3.77100
C          1.30800       18.42100        3.29200
C          0.01300       19.31200        6.67500
C         -0.48000       19.11600        7.95300
C         -0.01200       19.85600        9.00900
C          0.98600       20.76000        8.81000
C          1.55100       20.97300        7.55600
C          1.03800       20.22100        6.46700
C         -2.21400       18.05800        9.24100
C         -2.35500       18.30100        5.28100
C         -3.10000       17.14800        5.04400
C         -4.49500       17.20900        5.02500
C         -5.14200       18.42500        5.24200
C         -4.39600       19.57800        5.48000
C         -3.00300       19.51700        5.49900
C          0.30900       16.02400        1.99000
C          0.73200       16.22900        0.67800
C         -0.02400       15.73400       -0.38200
C         -1.20600       15.03500       -0.13600
C         -1.62900       14.83000        1.18100
C         -0.87300       15.32600        2.24100
C          2.26200       17.28700       -0.83700
C          2.92400       15.98200        3.19000
C          4.04700       16.76700        3.44700
C          5.32200       16.20500        3.37900
C          5.47300       14.85700        3.05400
C          4.34900       14.07100        2.79800
C          3.07500       14.63400        2.86100
Rh         6.33400        1.40200       10.99800
P          5.42800       -0.69800       10.88700
P          7.32700        0.60600       12.89600
O          4.15500       -0.32000        8.32600
O          7.70200       -0.62900       15.61600
C          7.36300        3.04200        9.06200
C          6.33000        2.02000        8.85400
C          5.20200        2.54000        9.48800
C          5.61000        3.92300       10.02000
C          6.60900        3.56300       11.10000
C          7.71100        3.07000       10.54800
C          6.63400        4.36600        8.93100
C          6.12500       -1.71300       12.21800
C          7.50600       -1.21100       12.65400
C          5.76500       -1.62100        9.36200
C          5.13500       -1.25600        8.20000
C          5.43200       -1.88100        6.95600
C          6.41900       -2.79700        6.92700
C          7.08700       -3.13600        8.05500
C          6.76500       -2.56900        9.27000
C          3.51600        0.24500        7.18400
C          3.64700       -0.82000       11.16700
C          2.94300        0.30900       11.58400
C          1.57900        0.21700       11.86500
C          0.92000       -1.00400       11.72900
C          1.62500       -2.13500       11.31300
C          2.98800       -2.04300       11.03200
C          6.37800        0.87000       14.39600
C          6.70100        0.25900       15.61100
C          5.99600        0.58700       16.76800
C          4.96700        1.52700       16.71500
C          4.64200        2.13800       15.50500
C          5.34700        1.81000       14.34300
C          8.07100       -1.29400       16.86500
C          8.95600        1.31900       13.27800
C         10.05400        0.92100       12.51300
C         11.28400        1.55700       12.67800
C         11.41900        2.59000       13.60200
C         10.32100        2.98600       14.36700
C          9.09000        2.35200       14.20700
P         11.74100        4.72900       -4.64700
F         13.01800        4.33600       -5.37800
F         11.66700        5.80600       -5.60100
F         10.50600        5.25500       -4.03200
F         11.74500        3.67200       -3.66900
F         12.68500        5.40100       -3.73700
F         10.92900        3.86400       -5.49400
P          9.45200       12.48400        3.76600
F          9.90400       12.17800        2.32400
F          8.77300       13.64900        3.30100
F          8.96500       12.74600        5.18000
F         10.00000       11.26900        4.20200
F         10.68600       13.23700        3.95500
F          8.30100       11.55100        3.47600
P         10.98700       13.59200       11.37600
F          9.48200       13.75000       11.10000
F         11.46200       14.88800       10.81900
F         12.45300       13.33500       11.77300
F         10.58200       12.24600       11.98600
F         10.78200       14.21400       12.72600
F         11.14100       12.91600       10.04900
C          4.62300        6.85700        0.56600
C          4.85500        6.21900       -0.68300
C          3.88000        6.68600       -1.60200
C          3.04400        7.61200       -0.92000
C          3.50400        7.71800        0.41600
C         11.45600        5.75000        9.44400
C         11.80400        5.19200        8.18100
C         10.90300        5.70700        7.20800
C          9.99700        6.58400        7.87100
C         10.34000        6.61000        9.25100
C         11.01100        5.38700        7.44500
C         10.69800        4.50600        8.52000
C         10.07000        5.27400        9.53600
C          9.99300        6.62900        9.09600
C         10.57600        6.69900        7.79800
H         15.61100       10.50000       -0.01900
H         13.70200        8.91400       -0.03400
H         11.86900        9.90200        1.13300
H         12.58400       12.16700        1.99400
H         14.45800       11.82000        3.51400
H         16.29400       10.83500        2.30900
H         13.60500       11.95900       -0.32400
H         14.63500       12.72000        0.60500
H         13.89200        5.34400        4.59400
H         13.24600        6.53500        5.36800
H         15.53300        6.63100        5.82300
H         15.87600        6.55600        4.29900
H         13.28900        5.10400       -1.36500
H         14.89100        3.52500       -0.88100
H         15.83400        3.32500        1.22500
H         15.11000        4.82800        2.92400
H         11.10800        7.82100       -0.96800
H         12.51100        7.42100       -1.54400
H         11.39800        6.32500       -1.37500
H         11.08700        8.75900        3.81400
H          8.80500        8.47200        4.32300
H          7.80600        6.33900        4.10500
H          9.08700        4.49400        3.37400
H         11.36700        4.78100        2.86100
H         13.69900        8.86500        9.49300
H         11.80800       10.20400        9.05700
H         11.33900       10.89900        6.85000
H         12.76200       10.25500        5.08300
H         16.49200        6.85300        8.96000
H         15.76400        8.04500        9.68600
H         14.94900        6.78000        9.22600
H         17.65200        8.29200        3.65500
H         19.66700        9.51600        3.65500
H         19.88800       11.43400        5.02000
H         18.09600       12.12700        6.38500
H         16.08100       10.90300        6.38000
H          2.13600       14.59900        8.07900
H          0.43600       16.34000        8.33600
H         -1.67000       15.56200        7.46000
H         -1.37000       13.26900        6.58800
H          0.28300       13.34000        4.77800
H          2.43600       14.09900        5.61000
H          0.05500       13.30900        8.71800
H          0.82400       12.45200        7.62900
H          0.04500       19.94000        3.89200
H         -0.70100       18.82600        3.09800
H          1.46500       18.67700        2.37200
H          2.02700       18.77400        3.81900
H         -0.38000       19.73800        9.89000
H          1.29100       21.25100        9.58500
H          2.26800       21.59500        7.47400
H          1.40700       20.34100        5.57600
H         -2.85200       17.34900        8.71800
H         -1.61000       17.84600        9.97200
H         -2.65400       18.88700        9.43000
H         -2.65500       16.30000        4.89400
H         -5.00700       16.41000        4.85500
H         -6.09700       18.47500        5.22300
H         -4.83500       20.43300        5.63000
H         -2.48400       20.32500        5.66400
H          0.26000       15.88300       -1.29200
H         -1.72900       14.69200       -0.86600
H         -2.44100       14.34200        1.35100
H         -1.16400       15.18300        3.14600
H          3.06400       17.83800       -0.81300
H          2.43200       16.48600       -1.31700
H          1.56700       17.80100       -1.27800
H          3.95100       17.70200        3.66900
H          6.10100       16.74300        3.55300
H          6.35200       14.45700        2.99600
H          4.45300       13.12600        2.56100
H          2.30300       14.08500        2.67700
H          8.13500        2.97200        8.47600
H          6.31300        1.41800        8.10300
H          4.29900        2.32400        9.20700
H          4.91200        4.54300       10.24800
H          6.63100        4.03900       11.94200
H          8.59900        3.17000       10.90600
H          6.22400        4.48200        8.06000
H          7.14600        5.13000        9.17300
H          6.20100       -2.62700       11.92300
H          5.53700       -1.69000       12.97800
H          7.77500       -1.64200       13.46200
H          8.15400       -1.40200       11.96600
H          4.93700       -1.65700        6.16200
H          6.66300       -3.22600        6.09000
H          7.80700       -3.78200        8.01100
H          7.24200       -2.83500       10.07300
H          2.85500        0.88600        7.45500
H          4.17300        0.69300        6.62700
H          3.09600       -0.45000        6.66100
H          3.39200        1.16200       11.67100
H          1.09100        1.00400       12.14500
H         -0.01800       -1.07200       11.92300
H          1.17300       -2.99000       11.22600
H          3.47400       -2.83200       10.75100
H          6.20900        0.17000       17.59600
H          4.47100        1.76500       17.49900
H          3.92800        2.79900       15.45200
H          5.12300        2.23900       13.49600
H          8.81000       -1.92300       16.68600
H          8.34000       -0.67100       17.51400
H          7.32700       -1.82800       17.18400
H          9.95300        0.20700       11.85500
H         12.03600        1.27700       12.13100
H         12.27200        3.02400       13.70400
H         10.42700        3.70400       15.00100
H          8.34400        2.63500       14.72500
H          5.11800        6.74600        1.37000
H          5.54100        5.60100       -0.87100
H          3.79800        6.45000       -2.52700
H          2.29800        8.12100       -1.31200
H          3.11300        8.30400        1.09900
H         11.70300        5.52400       10.42200
H         12.43400        4.34300        8.27800
H         11.09800        5.33300        6.34100
H          9.54300        7.12800        7.28500
H          9.91800        7.24600        9.80700
H         11.55600        4.93900        6.75800
H         10.64900        3.53300        8.68900
H          9.50200        5.11600       10.33500
H          9.70200        7.50100        9.42000
H         10.97200        7.39200        7.20800
