85
C:\Users\Javier\OneDrive - Universitat de Barcelona\Tesi\4 - Contribucions\Treballs\3-PhD\chapter_1\cif\pc2p\SUMSUR.pc2p.pdb
Pd        -2.29300        0.58900        7.29700
P         -2.66500        2.82300        7.42300
S         -4.33700        0.19400        8.25500
O         -6.85100       -4.05100        9.49500
C         -6.94400       -4.83900       10.58100
H         -7.90400       -4.93600       10.80000
H         -6.52000       -4.36000       11.33700
S         -1.88800       -1.67900        7.30100
P         -0.44900        1.15000        6.09400
O         -4.50500       -5.67000        9.04600
C         -6.35400       -6.19900       10.52400
H         -6.76200       -6.70100        9.77400
H         -6.56500       -6.68200       11.36300
C         -4.86600       -6.15300       10.34000
H         -4.47100       -5.56300       11.02900
H         -4.49400       -7.06100       10.46500
C         -4.36500       -1.54300        8.48200
C         -5.50200       -2.14300        9.02400
H         -6.23600       -1.59700        9.28200
C         -5.58600       -3.51000        9.19700
C         -4.49200       -4.30500        8.90700
C         -3.37700       -3.72300        8.36500
H         -2.62700       -4.27000        8.16000
C         -3.30200       -2.35900        8.10200
C         -4.28400        3.41500        6.87100
C         -4.89700        2.76900        5.81800
H         -4.52000        1.97100        5.46700
C         -6.06200        3.28200        5.27100
H         -6.46800        2.84700        4.53000
C         -6.62900        4.40700        5.79200
H         -7.43000        4.75200        5.41500
C         -6.05000        5.03900        6.85000
H         -6.46000        5.81100        7.22300
C         -4.85600        4.55700        7.39200
H         -4.44000        5.01300        8.11300
C         -2.22500        3.64300        8.98100
C         -1.76800        4.93200        9.07700
H         -1.65400        5.47800        8.30900
C         -1.48700        5.39900       10.34000
H         -1.16400        6.28900       10.42000
C         -1.63300        4.69100       11.45800
H         -1.43700        5.07600       12.30500
C         -2.06400        3.42200       11.36600
H         -2.15100        2.88400       12.14600
C         -2.38900        2.89400       10.08200
H         -2.72400        2.00900       10.00600
C          1.18100        0.40000        6.35100
C          2.26100        0.81300        5.57400
H          2.13500        1.48300        4.91200
C          3.50200        0.26600        5.75800
H          4.23300        0.55400        5.22300
C          3.69200       -0.71400        6.72400
H          4.55200       -1.09700        6.85200
C          2.63900       -1.12600        7.49200
H          2.76700       -1.79900        8.15000
C          1.37700       -0.56000        7.31300
H          0.65000       -0.84000        7.85800
C         -0.79600        0.93600        4.31800
C         -0.40700        1.84500        3.35100
H          0.04100        2.64300        3.60900
C         -0.66000        1.60900        2.01200
H         -0.36900        2.23300        1.35900
C         -1.32600        0.48000        1.62800
H         -1.51100        0.32100        0.70900
C         -1.72200       -0.42100        2.57900
H         -2.17600       -1.21200        2.31300
C         -1.47700       -0.20100        3.91500
H         -1.77400       -0.83000        4.56000
C         -1.48500        3.66600        6.31000
H         -1.84300        3.67400        5.38800
H         -1.36300        4.60400        6.60400
C         -0.15100        2.94700        6.33400
H          0.30200        3.10200        7.20100
H          0.43200        3.29200        5.61200
C         -2.55300        3.38500        9.18200
C         -3.53300        3.09700       10.13100
H         -4.31300        2.62100        9.87100
C         -3.38400        3.50000       11.44500
H         -4.06300        3.28000       12.07400
C         -2.31500        4.18800       11.86100
H         -2.26400        4.50900       12.75400
C         -1.31000        4.41900       10.98900
H         -0.50600        4.82200       11.29400
C         -1.44200        4.06500        9.61300
H         -0.76100        4.30200        8.99400
