161
C:\Users\Javier\OneDrive - Universitat de Barcelona\Tesi\4 - Contribucions\Treballs\3-PhD\chapter_1\cif\pc2p\SUNNIB.pc2p.pdb
Pd         0.08400        5.37300        2.91600
S         -1.32800        3.56300        2.64500
Na        -2.43400        0.37500       -3.89400
O         -3.11300        1.20800       -1.57100
P         -0.33400        5.62200        5.14000
S          0.61800        5.26800        0.66400
O         -0.34100       -0.67600       -3.42700
H         -0.12000       -1.52600       -3.17400
C          0.91200       -0.06300       -3.63400
H          1.46400       -0.63500       -4.20800
H          1.36000        0.06500       -2.77200
H          0.78300        0.80700       -4.06700
O         -4.81000        1.21200       -3.78000
P          1.47000        7.14600        3.21200
O         -3.32300       -1.66000       -3.16600
H         -2.98600       -2.03800       -2.38600
C         -4.63900       -2.20800       -3.21000
H         -5.29600       -1.48400       -3.14700
H         -4.76100       -2.82600       -2.45900
H         -4.76300       -2.69100       -4.05400
O         -3.62000        0.38300       -6.15200
O         -1.16200        1.67600       -5.72800
O         -1.57800        2.62600       -3.22300
C         -2.01200        5.47300        5.82200
C         -2.72300        6.57800        6.26800
H         -2.34000        7.44500        6.20400
C         -3.99300        6.41800        6.80800
H         -4.47400        7.17800        7.11600
C         -4.56200        5.16000        6.89900
H         -5.42900        5.05300        7.27500
C         -3.86400        4.05500        6.44200
H         -4.25600        3.19100        6.49900
C         -2.59400        4.20300        5.89900
H         -2.12100        3.44400        5.58000
C          0.66000        4.47100        6.12300
C          0.60100        4.51600        7.52200
H          0.03900        5.15000        7.95300
C          1.35800        3.63700        8.27700
H          1.31100        3.66500        9.22500
C          2.18600        2.71900        7.65100
H          2.71000        2.12400        8.17300
C          2.25200        2.66500        6.27000
H          2.81900        2.03100        5.84500
C          1.49100        3.53600        5.50800
H          1.53600        3.49600        4.56000
C          0.81200        8.68300        2.51200
C         -0.47300        8.71500        1.95300
H         -0.99200        7.92100        1.91100
C         -0.98400        9.90000        1.46400
H         -1.86300        9.92700        1.10600
C         -0.21700       11.05100        1.49600
H         -0.56300       11.85700        1.13200
C          1.05100       11.03600        2.05200
H          1.56700       11.83300        2.08000
C          1.56600        9.86200        2.56700
H          2.43200        9.85400        2.95800
C          3.17700        6.95100        2.62400
C          3.67800        7.65900        1.55300
H          3.12400        8.27700        1.09100
C          4.99800        7.47000        1.14800
H          5.34900        7.97100        0.42200
C          5.79900        6.54800        1.80900
H          6.69700        6.41100        1.53200
C          5.28400        5.82900        2.87000
H          5.83500        5.20000        3.32100
C          3.97800        6.01700        3.28400
H          3.62900        5.51200        4.01000
C          1.63000        7.49700        5.01400
H          2.29500        6.88800        5.42200
H          1.93000        8.42900        5.15500
C          0.26100        7.28300        5.64900
H         -0.37100        7.98100        5.34200
H          0.33000        7.33400        6.63500
C         -1.34800        3.32800        0.89200
C         -2.22100        2.38300        0.34100
H         -2.78800        1.87900        0.91300
C         -2.27000        2.17500       -1.02500
C         -4.52600        1.48000       -1.46900
H         -4.69300        2.07600       -0.69500
H         -5.01600        0.63400       -1.31700
C         -5.02700        2.13200       -2.71900
H         -5.99200        2.34000       -2.63600
H         -4.53700        2.97600       -2.88800
C         -5.36200        1.61500       -5.03000
H         -4.96600        2.47500       -5.32100
H         -6.34300        1.73000       -4.95200
C         -5.03800        0.52900       -6.01000
H         -5.42800       -0.32600       -5.69800
H         -5.43700        0.74600       -6.88900
C         -3.07800        1.21800       -7.17100
H         -3.43600        2.13500       -7.08300
H         -3.32900        0.86800       -8.06300
C         -1.57900        1.23500       -7.02900
H         -1.22600        0.32400       -7.19200
H         -1.19400        1.83700       -7.71500
C         -1.30700        3.08000       -5.51400
H         -2.26100        3.33800       -5.58400
H         -0.79500        3.58300       -6.19500
C         -0.78900        3.39100       -4.14500
H          0.16600        3.14000       -4.07300
H         -0.87700        4.35800       -3.95500
C         -1.42300        2.89000       -1.87600
C         -0.54100        3.80200       -1.34400
H          0.05300        4.27100       -1.91800
C         -0.50900        4.05000        0.04900
C         -1.85200        2.07200        8.71100
H         -1.77000        3.02300        8.44800
H         -1.20800        1.90200        9.44300
Cl        -3.49100        1.77200        9.29900
Cl        -1.45000        1.05500        7.33500
B          0.63500        3.79300       12.59800
C          0.39800        2.27400       11.98200
C         -0.77700        1.53300       12.21300
H         -1.44400        1.90600       12.77800
C         -1.00800        0.27900       11.65100
H         -1.80500       -0.19500       11.85800
C         -0.07700       -0.28100       10.79200
H         -0.23900       -1.12300       10.38500
C          1.08300        0.40900       10.53900
H          1.73100        0.03500        9.95200
C          1.32600        1.64600       11.12900
H          2.15000        2.08300       10.94900
C          2.24900        4.03800       12.81300
C          3.12300        4.34600       11.74800
H          2.75300        4.46300       10.88100
C          4.49400        4.48800       11.90100
H          5.03700        4.67500       11.14400
C          5.07900        4.35600       13.14900
H          6.01600        4.45700       13.26200
C          4.26200        4.07300       14.22700
H          4.63900        3.99300       15.09500
C          2.88900        3.90500       14.05300
H          2.36000        3.68900       14.81200
C         -0.17600        3.91200       14.04000
C         -0.12600        2.88800       15.00500
H          0.38100        2.10800       14.81600
C         -0.79000        2.97300       16.22500
H         -0.72700        2.25900       16.84800
C         -1.54400        4.09400       16.53600
H         -1.99700        4.15700       17.36900
C         -1.62300        5.12000       15.61300
H         -2.14100        5.89300       15.80500
C         -0.94300        5.02000       14.39900
H         -1.00600        5.74300       13.78600
C         -0.00600        4.90100       11.55200
C          0.58000        6.15000       11.26700
H          1.40400        6.36800       11.68500
C          0.01400        7.07500       10.40800
H          0.46300        7.89300       10.23600
C         -1.21000        6.81600        9.79300
H         -1.60500        7.45000        9.20700
C         -1.83300        5.60800       10.06200
H         -2.66900        5.41000        9.65900
C         -1.24800        4.68000       10.91500
H         -1.70300        3.86200       11.07700
O         -2.42400       -2.46900       -0.71400
H         -2.05200       -3.31400       -0.86800
C         -1.65700       -1.46500       -0.07100
H         -2.16100       -0.62400       -0.06400
H         -0.81500       -1.33700       -0.55400
H         -1.46700       -1.73900        0.85000
