147
C:\Users\Javier\OneDrive - Universitat de Barcelona\Tesi\4 - Contribucions\Treballs\3-PhD\chapter_1\cif\pc2p\SUNNOH.pc2p.pdb
Pd        16.55600        5.13500       -5.88400
S         16.91300        6.77800       -7.46800
P         16.12800        3.40700       -4.47600
O         17.84200        3.78000      -12.50300
O         18.15800        6.62900      -12.40800
P         16.16900        6.46100       -4.04600
S         16.86200        3.55900       -7.51800
C         17.25200        5.86700       -8.94400
C         17.17500        4.48500       -8.97200
C         17.38000        3.80600      -10.18200
H         17.30700        2.85900      -10.20700
C         17.68900        4.49900      -11.34100
C         17.82700        5.88700      -11.29400
C         17.60400        6.55200      -10.10600
H         17.69300        7.49700      -10.08000
C         17.87100        4.60900      -13.67900
H         16.94700        4.87200      -13.91900
H         18.24700        4.09100      -14.43600
C         18.68700        5.82300      -13.46200
H         19.61500        5.55900      -13.23700
H         18.71600        6.35400      -14.29700
C         17.06500        8.00800       -3.69100
C         17.53600        8.78700       -4.73700
H         17.38400        8.51100       -5.63300
C         18.22500        9.96100       -4.49200
H         18.54300       10.48400       -5.21800
C         18.44900       10.37300       -3.20300
H         18.93200       11.17400       -3.03400
C         17.96600        9.61500       -2.15300
H         18.11500        9.90400       -1.26000
C         17.27000        8.43900       -2.38300
H         16.93300        7.93100       -1.65400
C         14.40800        6.89500       -3.92400
C         13.78100        7.10900       -2.70100
H         14.27100        7.03800       -1.89100
C         12.42700        7.42900       -2.67800
H         11.99500        7.59300       -1.84900
C         11.72100        7.51000       -3.83200
H         10.79000        7.69300       -3.79900
C         12.33400        7.33100       -5.04900
H         11.83800        7.43000       -5.85400
C         13.68300        7.00500       -5.09600
H         14.10700        6.85900       -5.93300
C         16.48200        5.41000       -2.57700
H         17.45700        5.29600       -2.44700
H         16.11000        5.84400       -1.76800
C         15.82400        4.04900       -2.78400
H         14.84900        4.13100       -2.63500
H         16.18200        3.40700       -2.12100
C         14.62700        2.47900       -4.86800
C         13.65500        3.08200       -5.65600
H         13.81000        3.94400       -6.02400
C         12.46400        2.43000       -5.90500
H         11.80200        2.85100       -6.44200
C         12.22700        1.18900       -5.38800
H         11.40700        0.74600       -5.57000
C         13.17600        0.58500       -4.60800
H         13.01100       -0.28200       -4.25700
C         14.37100        1.21700       -4.32500
H         15.01400        0.79700       -3.76600
C         17.45900        2.18900       -4.31800
C         17.48000        1.03700       -5.11600
H         16.79400        0.88800       -5.75600
C         18.50500        0.11400       -4.96900
H         18.50500       -0.68000       -5.49200
C         19.52100        0.34100       -4.07200
H         20.21600       -0.29800       -3.96800
C         19.53200        1.49900       -3.32100
H         20.24800        1.67000       -2.72100
C         18.50700        2.40300       -3.44300
H         18.51900        3.19300       -2.91500
Pd         4.98800        4.53000       10.19800
P          3.16900        5.84300       10.51600
S          6.30500        6.31600        9.60300
O         11.69900        3.96000        8.86900
S          6.79800        3.14200        9.91400
O         11.29200        6.78700        8.68200
P          3.66400        2.86300       11.02500
C          7.90800        5.61000        9.41600
C          8.11900        4.24500        9.54600
C          9.39900        3.71500        9.34000
H          9.53800        2.77800        9.41600
C         10.45200        4.53600        9.02900
C         10.24900        5.91600        8.93700
C          8.98900        6.43600        9.11200
H          8.85300        7.37200        9.02500
C         12.69200        4.87700        8.39000
H         12.60500        4.97400        7.40800
H         13.59400        4.51600        8.58200
C         12.54600        6.19500        9.02700
H         12.60500        6.09600       10.01100
H         13.28300        6.78900        8.73400
C          2.73000        7.09400        9.29500
C          2.99700        6.80700        7.95400
H          3.47000        6.01500        7.72700
C          2.58200        7.65400        6.97100
H          2.76300        7.44900        6.06000
C          1.90200        8.81400        7.29300
H          1.63200        9.41000        6.60500
C          1.60900        9.10700        8.60300
H          1.13300        9.90100        8.81600
C          2.01200        8.24000        9.62000
H          1.79900        8.43100       10.52600
C          1.71500        4.73300       10.53800
H          0.91700        5.22200       10.86200
H          1.52800        4.39600        9.62600
C          2.03200        3.57900       11.46600
H          1.33000        2.88500       11.38700
H          2.04800        3.89800       12.40300
C          3.21200        6.59400       12.17500
C          4.45400        6.88300       12.73900
H          5.24300        6.78000       12.21900
C          4.54700        7.31500       14.04500
H          5.39700        7.51100       14.42100
C          3.39900        7.46600       14.80800
H          3.46100        7.74300       15.71500
C          2.16900        7.21200       14.25100
H          1.38200        7.34500       14.76600
C          2.06800        6.76300       12.94200
H          1.21500        6.57200       12.57000
C          4.26000        2.22100       12.61400
C          4.61900        3.14700       13.58000
H          4.61700        4.07200       13.36700
C          4.97400        2.74000       14.84600
H          5.20300        3.38400       15.50600
C          5.00000        1.40000       15.15700
H          5.23900        1.11600       16.03100
C          4.68100        0.47400       14.19200
H          4.71900       -0.45200       14.40200
C          4.30100        0.87000       12.92400
H          4.07000        0.22200       12.26900
C          3.35500        1.42300        9.96800
C          4.46100        0.69500        9.53100
H          5.33500        0.96600        9.78500
C          4.29700       -0.41900        8.72800
H          5.05200       -0.91200        8.42900
C          3.02900       -0.80400        8.36600
H          2.90700       -1.57600        7.82600
C          1.93800       -0.08400        8.77900
H          1.06700       -0.35500        8.51200
C          2.08900        1.03000        9.57900
H          1.32800        1.52500        9.86000
C          6.46600        9.99800        8.76200
H          6.58400        9.17900        9.30600
H          6.69000       10.77600        9.33100
Cl         7.55700        9.94700        7.39900
Cl         4.80600       10.11600        8.26000
