68
C:\Users\Javier\OneDrive - Universitat de Barcelona\Tesi\4 - Contribucions\Treballs\3-PhD\chapter_1\cif\pc2p\SUNNAT.pc2p.pdb
Pd         6.32700        7.45800        3.59800
S          4.66300        9.03600        3.78900
P          8.05200        6.01700        3.49000
O          6.52900       13.78300        0.91200
P          5.21100        5.75300        4.64200
S          7.56600        8.95400        2.39800
O          4.43200       13.86000        1.87200
C          5.27500       10.40000        2.87300
C          6.53500       10.36300        2.28100
C          7.05100       11.49400        1.60800
H          7.91200       11.47800        1.20500
C          6.27100       12.59900        1.56200
C          5.01500       12.63700        2.12900
C          4.48500       11.56300        2.78500
H          3.61600       11.59900        3.16700
C          5.49100       14.66300        1.36100
H          5.83600       15.26300        2.07000
H          5.16600       15.21900        0.61000
C          9.69000        6.75500        3.62400
C         10.12700        7.23800        4.84200
H          9.59400        7.11700        5.61900
C         11.33900        7.89700        4.93200
H         11.64300        8.22100        5.77200
C         12.09700        8.07900        3.81400
H         12.92600        8.54000        3.87700
C         11.67700        7.61000        2.60500
H         12.21700        7.74000        1.83300
C         10.47200        6.94800        2.49800
H         10.18000        6.62300        1.65400
C          8.11300        4.97200        2.01300
C          8.88700        3.80800        2.01500
H          9.38400        3.56900        2.78900
C          8.21600        3.35800       -0.23000
H          8.24500        2.79900       -0.99700
C          8.92900        3.00800        0.89700
H          9.44900        2.21400        0.90100
C          7.46300        4.51000       -0.25600
H          6.97900        4.75000       -1.03700
C          7.41600        5.31600        0.86800
H          6.90100        6.11400        0.85300
C          4.56500        5.95400        6.32600
C          3.71100        7.01500        6.57500
H          3.57800        7.67900        5.90900
C          3.04700        7.11700        7.79100
H          2.44100        7.83200        7.94300
C          4.13200        5.14200        8.54100
H          4.28600        4.49900        9.22200
C          4.77600        5.02700        7.32300
H          5.37000        4.30100        7.17300
C          3.78500        5.14500        3.69500
C          3.88600        5.08800        2.30800
H          4.68800        5.37600        1.88700
C          2.85200        4.62300        1.54000
H          2.94400        4.57600        0.59500
C          1.66900        4.22100        2.14300
H          0.94400        3.91100        1.61300
C          1.55200        4.27600        3.51300
H          0.74400        3.99800        3.92700
C          2.60100        4.73200        4.29800
H          2.51200        4.76000        5.24400
C          7.80000        4.83500        4.86200
H          8.44400        4.08600        4.80000
H          7.91700        5.28400        5.73600
C          6.37300        4.33100        4.70300
H          6.14200        3.74400        5.46500
H          6.29800        3.80200        3.87000
C          3.26800        6.18600        8.76800
H          2.82400        6.26200        9.60500
