236
C:\Users\Javier\OneDrive - Universitat de Barcelona\Tesi\4 - Contribucions\Treballs\3-PhD\chapter_1\cif\pc2p\SUSHET.pc2p.pdb
Ru         3.98600        1.00200       13.76700
S          8.62500        8.46700       15.74300
S          6.09000       10.81600       11.55900
S          4.49200        6.10300       13.37700
P          6.05700        0.66000       12.86100
P          3.58900       -1.16600       13.15300
N          7.29800        9.61700       13.69000
N          5.45600        8.47800       12.61400
N          6.54000        7.46200       14.47200
C          6.20300       -1.09100       12.36900
C          4.86700       -1.68000       12.00100
C          3.38400        1.54900       12.05700
C          2.87100        1.97600       11.07900
C          4.50600        2.51100       15.31600
C          4.37000        1.27400       15.90200
C          3.10900        0.93600       15.79300
C          2.39200        1.92500       15.05300
C          3.33800        2.88700       14.78400
C          2.44300        2.62400        9.92200
C          1.56400        2.02700        9.14400
C          1.20900        2.64600        7.90000
C          1.76000        3.80300        7.59500
C          2.59600        4.44600        8.45000
C          2.92900        3.86300        9.64900
C          6.38200        1.63000       11.42900
C          6.14500        3.07700       11.55200
C          6.36900        3.89500       10.46200
C          6.83500        3.39100        9.24200
C          7.03900        2.04300        9.13400
C          6.86000        1.16800       10.22700
C          7.56000        0.84900       13.85500
C          8.61300        1.62400       13.49700
C          9.75700        1.88100       14.30000
C          9.73900        1.08000       15.42500
C          8.74100        0.38100       15.98600
C          7.58200        0.24900       15.13700
C          3.46700       -2.38500       14.53100
C          4.53600       -3.23800       14.76600
C          4.40700       -4.15400       15.78200
C          3.29000       -4.13900       16.60300
C          2.16200       -3.36400       16.24200
C          2.29300       -2.50900       15.24600
C          2.02100       -1.51900       12.22100
C          1.98300       -2.64100       11.42900
C          0.71200       -2.87600       10.70700
C         -0.26900       -1.97200       10.77000
C         -0.18300       -0.86000       11.49600
C          0.95500       -0.66400       12.25700
C          7.46200        8.52700       14.58400
C          6.27900        9.64700       12.67700
C          5.59300        7.37700       13.48000
C          8.21400       10.78900       13.75700
C          9.10100       11.05900       12.74700
C          9.90500       12.19000       12.85600
C          9.80600       12.99700       13.91100
C          8.97900       12.72300       14.93400
C          8.07200       11.62500       14.86800
C          4.27100        8.48400       11.65400
C          4.54500        7.98000       10.37400
C          3.50800        8.03900        9.48400
C          2.32300        8.62500        9.84900
C          2.13200        9.12700       11.16600
C          3.20100        9.05900       12.03600
C          6.68100        6.28300       15.41800
C          5.88000        6.37700       16.59900
C          6.08100        5.34200       17.53500
C          7.03000        4.35800       17.01600
C          7.78800        4.24300       15.90500
C          7.57000        5.30400       15.01100
Ru         6.58600        0.48400        3.40600
S          1.80500        8.81000        1.89100
S          6.03200       10.94200        4.26600
S          4.26400        6.22100        5.95200
P          4.53600        0.91100        4.34300
P          7.14000        2.54900        4.23500
N          3.85100        9.75600        3.31600
N          5.03700        8.57000        4.94500
N          3.16300        7.51800        3.85200
C          4.46100        2.65700        4.98400
C          5.88400        3.07700        5.45400
C          7.14300       -0.27600        5.10000
C          7.48900       -0.82000        6.06000
C          5.76500       -0.55800        1.59800
C          6.39900        0.61300        1.23400
C          7.77400        0.55200        1.54200
C          8.01200       -0.64400        2.12000
C          6.70100       -1.36100        2.19800
C          7.78800       -1.53300        7.18100
C          8.69200       -1.02700        8.08900
C          8.93100       -1.70400        9.29100
C          8.30700       -2.87000        9.51900
C          7.42300       -3.36900        8.64300
C          7.22900       -2.77900        7.39500
C          4.14000       -0.10000        5.76500
C          4.09300       -1.49100        5.53800
C          3.82600       -2.35600        6.57200
C          3.64200       -1.89200        7.87900
C          3.70800       -0.52000        8.08600
C          4.01900        0.29500        7.01700
C          3.02500        0.84700        3.34000
C          1.85200        0.47400        3.90800
C          0.62100        0.44000        3.04200
C          0.73200        0.71300        1.72400
C          1.86500        1.10700        1.24100
C          3.03000        1.12600        2.02200
C          7.28500        3.89500        3.03900
C          6.30300        4.89200        2.88800
C          6.45400        5.90300        1.90300
C          7.56600        5.95800        1.15300
C          8.55900        5.02000        1.26500
C          8.43100        3.96100        2.24000
C          8.65000        2.70200        5.24700
C          8.87000        3.87800        6.01100
C          9.94200        3.94300        6.85200
C         10.88700        2.94100        6.88400
C         10.75500        1.79300        6.10900
C          9.62500        1.72000        5.25400
C          2.97000        8.70600        3.07000
C          4.91800        9.69200        4.16000
C          4.09500        7.51100        4.87900
C          3.62000       11.02700        2.55500
C          4.09500       11.10000        1.27600
C          3.75900       12.24100        0.52900
C          2.90800       13.13200        1.11100
C          2.42000       13.08900        2.34500
C          2.79200       11.92300        3.12300
C          6.14100        8.44300        5.86000
C          6.03300        8.97100        7.12500
C          7.08400        8.72700        8.01200
C          8.12800        8.02200        7.61300
C          8.30600        7.54300        6.35400
C          7.25000        7.72300        5.41900
C          2.21700        6.36900        3.70100
C          1.23300        6.10400        4.54900
C          0.37400        5.00900        4.33600
C          0.53900        4.27500        3.20700
C          1.53300        4.53300        2.35200
C          2.37000        5.58900        2.56600
H          6.65700       -1.59500       12.96800
H          6.77500       -1.27600       11.56600
H          4.72500       -1.27600       11.21600
H          4.85500       -2.71200       11.91700
H          5.31600        3.03100       15.42100
H          5.03800        0.79800       16.47300
H          2.79900        0.16000       16.12200
H          1.40500        1.91400       14.72000
H          3.13600        3.66900       14.37000
H          1.09200        1.11700        9.46300
H          0.51400        2.23300        7.36000
H          1.51800        4.14700        6.65900
H          2.91200        5.26400        8.06100
H          3.49100        4.30700       10.16400
H          5.77100        3.50900       12.26700
H          6.10800        4.78500       10.51500
H          7.04100        3.98800        8.41200
H          7.23000        1.59500        8.41200
H          7.08300        0.16000       10.16400
H          8.57700        2.07400       12.61800
H         10.53800        2.55200       14.01900
H         10.58000        0.95700       15.77200
H          8.79000        0.00000       16.82300
H          6.82800       -0.31900       15.42100
H          5.40500       -3.19000       14.37000
H          5.06800       -4.78500       16.12200
H          3.24800       -4.62600       17.52400
H          1.22800       -3.35000       16.82300
H          1.56500       -1.91400       15.07100
H          2.83500       -3.35000       11.21600
H          0.65500       -3.66900       10.16400
H         -1.04600       -2.07400       10.16400
H         -0.97500       -0.16000       11.56600
H          0.98600        0.16000       12.96800
H          9.20300       10.52800       11.91700
H         10.49700       12.28200       12.26700
H         10.34900       13.87700       14.01900
H          9.06700       13.23900       15.77200
H          7.39500       11.48500       15.42100
H          5.38100        7.65600       10.16400
H          3.63900        7.65600        8.41200
H          1.68900        8.77300        9.11300
H          1.29300        9.41100       11.56600
H          3.06500        9.41100       12.96800
H          5.19800        7.17800       16.82300
H          5.64700        5.26400       18.22500
H          7.21800        3.50900       17.52400
H          8.50000        3.50900       15.77200
H          8.08100        5.26400       14.01900
H          3.87500        2.71200        5.60800
H          4.18200        3.19000        4.20600
H          5.95400        3.98800        5.60800
H          6.08400        2.71200        6.30900
H          4.79700       -0.79800        1.40200
H          5.99000        1.43600        0.70100
H          8.38900        1.27600        1.40200
H          8.86700       -0.95700        2.45300
H          6.59900       -2.23300        2.45300
H          9.18000       -0.16000        7.71100
H          9.57000       -1.27600        9.81400
H          8.56500       -3.35000       10.51500
H          6.82300       -4.14700        8.76200
H          6.81100       -3.19000        6.65900
H          4.34200       -1.91400        4.55600
H          3.81600       -3.35000        6.30900
H          3.42000       -2.55200        8.76200
H          3.58000       -0.16000        9.11300
H          4.10500        1.27600        7.36000
H          1.85500        0.31900        4.90700
H         -0.29600        0.31900        3.50500
H         -0.08900        0.63800        1.05100
H          1.86100        1.43600        0.35000
H          3.82200        1.27600        1.75200
H          5.56500        4.94500        3.50500
H          5.71200        6.54000        1.75200
H          7.72100        6.69900        0.35000
H          9.39300        5.10400        0.70100
H          9.05600        3.19000        2.45300
H          8.19300        4.62600        5.95800
H         10.15500        4.62600        7.36000
H         11.66700        3.03100        7.36000
H         11.37800        1.11700        6.30900
H          9.63500        0.95700        4.55600
H          4.63700       10.36800        1.05100
H          4.18800       12.44200       -0.35000
H          2.58700       13.87700        0.70100
H          1.84300       13.71800        2.80400
H          2.48100       11.80400        4.20600
H          5.24000        9.41100        7.36000
H          7.01200        9.09200        8.76200
H          8.74300        7.81600        8.41200
H          9.13900        7.01800        5.95800
H          7.36600        7.33700        4.55600
H          1.06900        6.69900        5.25700
H         -0.41400        4.78500        4.90700
H         -0.07700        3.50900        3.15400
H          1.58300        3.98800        1.40200
H          3.06600        5.74200        1.75200
