88
C:\Users\Javier\OneDrive - Universitat de Barcelona\Tesi\4 - Contribucions\Treballs\3-PhD\chapter_1\cif\pc2p\TACWOK.pc2p.pdb
Rh        -1.88900        3.64900       13.22800
Cl         0.29700        3.30600       12.29600
C         -3.90000        3.14400       12.32300
C         -2.96400        3.41700       11.29400
C         -2.54000        4.79300       11.42700
C         -3.18800        5.35900       12.55900
C         -3.97000        4.31200       13.17100
C         -4.79300        1.96400       12.45100
H         -5.72200        2.23800       12.29900
H         -4.70900        1.58600       13.35100
H         -4.53900        1.28900       11.78900
C         -2.55900        2.53700       10.15500
H         -2.92700        2.89500        9.32000
H         -2.90400        1.63200       10.30300
H         -1.58200        2.51000       10.09500
C         -1.68700        5.51100       10.44300
H         -2.20100        5.67700        9.62400
H         -0.90200        4.96400       10.23100
H         -1.39800        6.36600       10.82300
C         -3.22100        6.79600       12.93000
H         -3.83500        7.27400       12.33400
H         -2.32200        7.17600       12.84700
H         -3.52800        6.88600       13.85700
C         -4.96200        4.52200       14.26800
H         -5.75000        4.98000       13.91200
H         -4.55700        5.06800       14.97500
H         -5.22700        3.65400       14.63900
C          0.22300        3.39500       15.80000
H          1.04400        3.25700       15.26500
H          0.49400        3.70500       16.70100
C         -0.52600        2.07300       15.92700
H         -1.11500        2.10800       16.72200
H          0.12700        1.34200       16.06400
P         -0.81400        4.68000       15.00100
C         -1.84400        5.45600       16.30200
C         -2.35600        4.73400       17.37600
H         -2.14500        3.81200       17.46700
C         -3.17000        5.34800       18.31100
H         -3.51500        4.84300       19.03800
C         -3.48700        6.68800       18.19900
H         -4.05400        7.10200       18.83800
C         -2.96800        7.41700       17.14800
H         -3.17300        8.34200       17.06900
C         -2.15000        6.81300       16.20700
H         -1.79500        7.32700       15.49100
C          0.36100        6.01200       14.60800
C          1.18400        6.51700       15.61600
H          1.14100        6.15000       16.49100
C          2.06500        7.55400       15.34300
H          2.63100        7.88700       16.02900
C          2.12400        8.10600       14.07200
H          2.71900        8.82500       13.89000
C          1.32200        7.61400       13.07900
H          1.36500        7.99100       12.20800
C          0.44100        6.56200       13.33500
H         -0.10500        6.22000       12.63600
P         -1.54300        1.70400       14.43700
C         -0.65800        0.45600       13.42700
C          0.69900        0.18600       13.51500
F          1.47700        0.82100       14.37700
C          1.27700       -0.75100       12.68400
F          2.57400       -1.00700       12.79900
N          0.63900       -1.39900       11.74700
C         -0.63300       -1.13100       11.61900
F         -1.30000       -1.76000       10.64000
C         -1.31800       -0.23500       12.41700
F         -2.63600       -0.04700       12.19800
C         -2.95800        0.82700       15.16000
C         -3.84200        1.61400       15.89000
H         -3.69100        2.54900       15.95500
C         -4.94100        1.05500       16.52600
H         -5.52700        1.59700       17.03900
C         -5.17300       -0.30500       16.40400
H         -5.93700       -0.69400       16.81400
C         -4.29900       -1.09600       15.69000
H         -4.46800       -2.02700       15.61200
C         -3.17600       -0.54800       15.08300
H         -2.56000       -1.10500       14.61900
B         -0.04300       -2.37300       16.03900
F         -0.98600       -3.12900       16.72000
F          1.23500       -2.85900       16.33700
F         -0.13600       -1.04400       16.43200
F         -0.26400       -2.47800       14.67800
Cl         1.30000        1.24500        9.60000
C          1.93800       -0.12800        8.53500
H          2.21200       -0.36000        7.61100
H          1.49600       -0.91900        8.92900
Cl         3.52200       -0.61700        9.18700
