58
C:\Users\Javier\OneDrive - Universitat de Barcelona\Tesi\4 - Contribucions\Treballs\3-PhD\chapter_1\cif\pc2p\TAMJEW.pc2p.pdb
Ru         4.59900        1.59500        0.42500
S          5.40100        4.60900        7.13300
P          3.88600        1.43100        2.64200
P          4.96100        3.81600        0.97200
F          3.76500        2.73400        7.25800
F          3.28700        4.35700        8.48700
F          4.62300        3.07300        9.02600
O          7.50800        1.18700        0.95300
O          4.68900        5.05100        5.97400
O          5.60600        5.76700        7.93600
O          6.48100        4.45700        8.12000
O          6.41700        3.92100        6.77700
O          5.87100        3.20000        6.31600
C          6.37700        1.33800        0.83200
C          4.85200        0.65300       -1.59300
C          4.20800       -0.23900       -0.78500
C          2.97700        0.30200       -0.41900
C          2.91400        1.59800       -1.05000
C          4.10000        1.76300       -1.75600
C          4.23000        3.60700        7.97000
C          4.10300        3.04300        3.49000
C          5.17000        3.87000        2.79700
C          4.77300        0.22200        3.71400
C          6.20700        0.58200        4.03400
C          6.85800       -0.49300        4.96100
C          6.72000       -1.87000        4.41300
C          5.28600       -2.20700        4.08800
C          4.66600       -1.19000        3.16800
C          2.09500        0.99900        2.88700
C          1.65600        0.78800        4.34300
C          0.23500        0.32900        4.43300
C         -0.72100        1.29200        3.70700
C         -0.27100        1.51000        2.29100
C          1.14800        2.00300        2.22400
C          3.58300        5.00600        0.59700
C          3.44100        6.16200        1.47900
C          2.15400        6.96900        1.11900
C          2.14600        7.31200       -0.37100
C          2.31000        6.25000       -1.18200
C          3.56400        5.37600       -0.88400
C          6.54700        4.54300        0.35600
C          7.22800        5.49600        0.97800
C          8.52700        5.99400        0.51000
C          8.82700        5.58800       -0.96400
C          8.22500        4.71400       -1.51000
C          6.83900        4.23300       -1.10800
C          8.89700        4.93400        4.37200
C          8.90100        3.65300        4.45500
C          9.89200        2.89400        3.88700
C         10.91600        3.55600        3.26900
C         10.93900        4.98800        3.21300
C          9.77400        5.60300        3.88200
C          9.13200        5.75700        4.21300
C          8.85900        4.31000        4.46600
C          9.27400        2.98600        4.37500
C         10.66500        2.87900        3.36300
C         11.13200        4.29500        3.21800
C         10.60100        5.68000        3.50800
