99
C:\Users\Javier\OneDrive - Universitat de Barcelona\Tesi\4 - Contribucions\Treballs\3-PhD\chapter_1\cif\pc2p\TAWYUN.pc2p.pdb
Pd         7.89100       11.07200       -8.43000
S          6.82100        8.95500       -8.25100
S          5.90100       12.25900       -7.86100
P          9.87300       10.06800       -8.81300
P          9.02700       12.99900       -8.71900
N          6.09100        7.54000      -10.44200
N          5.98300        7.68700      -11.78000
N          6.34900        8.89700      -12.04900
N          6.69900        9.55700      -10.92200
N          5.47500       12.80400       -5.21200
N          5.96200       12.47000       -4.00000
N          6.92100       11.61800       -4.22100
N          7.07400       11.38800       -5.53600
C         11.02300       11.34300       -9.42300
H         11.94000       11.03600       -9.33100
H         10.85300       11.52300      -10.36100
C         10.81000       12.60800       -8.59700
H         11.34300       13.33800       -8.95000
H         11.06300       12.45700       -7.67200
C         10.02200        8.66600       -9.92300
C         10.21700        8.85100      -11.27100
H         10.26600        9.71500      -11.61200
C         10.34300        7.78300      -12.12100
H         10.49700        7.93200      -13.02700
C         10.24300        6.52400      -11.66400
H         10.33000        5.81100      -12.25600
C         10.01700        6.27900      -10.34200
H          9.94300        5.40600      -10.03000
C          9.89700        7.36000       -9.45900
H          9.73400        7.20300       -8.55700
C         10.64700        9.55200       -7.26500
C         10.08400        9.86100       -6.07300
H          9.25700       10.28400       -6.04200
C         10.75600        9.53800       -4.89000
H         10.38600        9.77300       -4.06900
C         11.94700        8.88700       -4.93300
H         12.38000        8.65700       -4.14300
C         12.50700        8.56800       -6.12700
H         13.32200        8.12200       -6.15000
C         11.88200        8.90000       -7.29300
H         12.28000        8.69200       -8.10800
C          8.85400       13.58300      -10.40900
C          8.22200       12.79300      -11.35500
H          7.82100       11.99400      -11.09300
C          8.18200       13.17100      -12.66900
H          7.74700       12.63600      -13.29400
C          8.78300       14.34300      -13.07100
H          8.76500       14.59400      -13.96600
C          9.40300       15.13500      -12.15400
H          9.80100       15.93100      -12.42300
C          9.44500       14.76300      -10.83700
H          9.87500       15.31000      -10.22000
C          8.70800       14.40800       -7.63300
C          9.26400       14.45100       -6.38300
H          9.84200       13.77500       -6.10800
C          8.96200       15.51700       -5.51900
H          9.34100       15.54500       -4.66900
C          8.12000       16.50700       -5.91800
H          7.93000       17.21600       -5.34700
C          7.56800       16.45700       -7.13000
H          6.99200       17.13300       -7.40500
C          7.84600       15.40100       -7.98000
H          7.43400       15.37100       -8.81400
C          6.53600        8.70000       -9.91600
C          5.75600        6.29600       -9.74700
H          6.20600        6.30700       -8.87600
C          6.27600        5.09900      -10.52200
H          7.22400        5.18500      -10.64400
H          5.84500        5.06100      -11.37900
H          6.08800        4.29400      -10.03400
C          4.24200        6.20100       -9.49200
C          3.32600        6.48400      -10.44400
H          3.59800        6.75000      -11.29200
C          1.95100        6.37000      -10.13800
H          1.31500        6.60300      -10.77700
C          1.55500        5.93000       -8.93400
H          0.64700        5.86300       -8.74300
C          2.45900        5.58600       -8.00700
H          2.18200        5.25100       -7.18400
C          3.81800        5.73400       -8.28200
H          4.44300        5.50900       -7.63300
C          6.16100       12.12800       -6.17000
C          4.38600       13.76300       -5.37600
H          4.31800       13.97800       -6.33000
C          4.71300       15.03200       -4.64400
H          5.55700       15.37100       -4.95200
H          4.76600       14.85500       -3.70000
H          4.02700       15.68400       -4.80900
C          3.04800       13.19600       -4.93300
C          1.95100       13.89000       -5.31200
H          2.02900       14.66400       -5.82300
C          0.67300       13.40800       -4.91100
H         -0.08900       13.90300       -5.10500
C          0.55900       12.29700       -4.28200
H         -0.29000       11.97100       -4.09100
C          1.66600       11.57300       -3.88000
H          1.57600       10.78800       -3.39000
C          2.89800       12.04600       -4.23200
H          3.65500       11.56600       -3.98400
