57
C:\Users\Javier\OneDrive - Universitat de Barcelona\Tesi\4 - Contribucions\Treballs\3-PhD\chapter_1\cif\pc2p\TCPEPD10.pc2p.pdb
C         -0.03200       -0.93500        0.84300
C         -4.07500       -4.63100       -2.43600
C         -1.87200       -6.48300       -2.34700
C          1.43200       -2.14200       -1.88000
C         -1.06200       -0.97500       -2.85800
C         -3.30100       -4.94900        1.37200
C         -4.90000       -5.65900       -1.93100
C         -0.88100       -6.89600       -1.43800
C          2.13500       -2.90600       -0.99900
C         -1.94100       -0.35100       -2.02200
C         -1.68000       -4.11300       -4.00100
C         -6.23100       -5.56900       -1.96100
C         -0.43800       -8.21900       -1.41000
C          3.51500       -2.72700       -0.74500
C         -2.58700        0.79600       -2.48900
C         -0.18500       -3.61200       -3.72300
C         -6.81400       -4.39900       -2.42100
C         -1.00800       -9.03400       -2.38600
C          4.15500       -1.66400       -1.30300
C         -2.33700        1.28800       -3.76800
C         -6.09300       -3.35900       -2.88300
C         -1.96000       -8.67700       -3.29500
C          3.49000       -0.79400       -2.14200
C         -1.45700        0.64500       -4.54400
C         -4.73500       -3.47900       -2.88000
C         -2.41400       -7.36500       -3.30600
C          2.14300       -1.03800       -2.42100
C         -0.81500       -0.49700       -4.15100
H         -1.39100       -4.85100       -4.70200
H          0.20700       -3.27300       -4.59100
H         -4.20100       -6.59200       -1.45400
H          0.20700       -6.29000       -1.44500
H          1.66700       -3.71400       -0.50200
H         -2.56200       -0.69600       -0.95200
H         -6.90000       -6.03500       -1.50500
H          0.56500       -8.17100       -0.62900
H          4.18700       -3.52800       -0.25500
H         -3.56700        1.02100       -2.39800
H         -7.97500       -4.29400       -2.37200
H         -0.49600       -9.98100       -2.35500
H          5.23400       -1.20700       -1.06300
H         -3.19500        1.76400       -4.12300
H         -6.57000       -2.48400       -3.49400
H         -2.58900       -9.33100       -3.87700
H          3.99400       -0.04600       -2.50000
H         -1.18400        1.02100       -5.45000
H         -4.20100       -2.69300       -3.03500
H         -3.51200       -7.28900       -3.58800
H          1.43200       -0.46400       -2.86500
H          0.12400       -0.76600       -4.88000
N          0.41700        0.11400        0.64000
N         -2.56700       -4.64900        0.64300
Pd        -1.43700       -3.55400       -0.69000
P         -2.30600       -4.73300       -2.40900
P         -0.23600       -2.50700       -2.26700
S         -0.71600       -2.38900        1.23500
S         -4.43100       -5.36400        2.49400
