87
C:\Users\Javier\OneDrive - Universitat de Barcelona\Tesi\4 - Contribucions\Treballs\3-PhD\chapter_1\cif\pc2p\TEGDUF.pc2p.pdb
Pd         8.41000        3.85400        7.36900
P         10.29800        4.02200        5.95400
P          8.04400        1.82000        6.22200
Si         6.71700        3.63900        9.02100
Si         8.45200        6.05800        8.23500
C          6.50600        5.19700       10.07300
C          7.21000        6.34500        9.65700
C          7.04700        7.54800       10.33300
C          6.26000        7.65000       11.42600
C          5.62600        6.53800       11.87700
C          5.70700        5.32100       11.22400
C          5.02300        3.24800        8.19200
C          3.78300        2.81100        9.08300
C          2.75700        3.86800        9.56400
C          3.09300        1.62600        8.36100
C          7.06000        2.18200       10.16500
C          8.41100        2.05100       10.82400
C          8.41400        0.74000       11.70200
C          8.90900        3.26700       11.57400
C         10.13200        6.66000        8.86700
C         10.81300        6.21900       10.12100
C         12.18500        6.88600        9.85700
C         10.53000        7.26300       11.23300
C          8.09400        7.30100        6.86300
C          7.07600        6.97500        5.76500
C          5.67200        6.80300        6.38000
C          7.08500        8.07100        4.61700
C         10.11600        2.72200        4.64300
C          9.59100        1.45700        5.29300
C         10.79800        5.49200        4.99900
C         11.74500        6.38700        5.52300
C         11.97600        7.57400        4.82100
C         11.30300        7.90000        3.70200
C         10.38200        7.03800        3.18100
C         10.10400        5.84200        3.84300
C         11.83300        3.44300        6.77800
C         11.77800        3.03100        8.06300
C         12.92100        2.53100        8.73700
C         14.11200        2.49400        8.03900
C         14.17200        2.93700        6.70200
C         13.05200        3.42300        6.08100
C          6.86500        2.05100        4.86600
C          6.18200        3.25200        4.77400
C          5.28900        3.47300        3.73100
C          5.16000        2.54000        2.71200
C          5.82400        1.37600        2.79700
C          6.69500        1.10500        3.85000
C          7.60700        0.20400        6.94900
C          6.34500       -0.34500        6.83500
C          6.04400       -1.52200        7.49800
C          6.96800       -2.15800        8.24300
C          8.19500       -1.61300        8.39200
C          8.55700       -0.45400        7.76100
H          7.50000        8.33500       10.01800
H          6.13800        8.48800       11.87800
H          5.09900        6.59000       12.67800
H          5.23600        4.54400       11.53800
H          5.16900        2.53400        7.56600
H          4.73900        4.03100        7.71400
H          6.91500        1.38100        9.65700
H          6.41200        2.22900       10.86900
H         10.05100        7.61300        8.94400
H          8.93200        7.46400        6.42100
H          7.79900        8.11300        7.27900
H         10.96200        2.56800        4.21500
H          9.48200        3.01700        3.98500
H          9.41400        0.78800        4.62800
H         10.25700        1.12700        5.90100
H         12.21100        6.16100        6.33200
H         12.63000        8.18200        5.17500
H         11.48000        8.73600        3.26600
H          9.43500        5.25300        3.48900
H         10.93400        3.07500        8.52300
H         12.88400        2.22900        9.64800
H         14.90000        2.15800        8.47500
H         15.02000        2.91000        6.25200
H         13.09100        3.69900        5.16200
H          6.31200        3.91900        5.45200
H          4.77700        4.28300        3.69000
H          4.57300        2.70400        1.96900
H          5.70700        0.73100        2.09500
H          7.17600        0.27600        3.89000
H          5.68900        0.08900        6.28400
H          5.16500       -1.89600        7.42200
H          6.74800       -2.97400        8.69800
H          8.84600       -2.06000        8.93800
H          9.43600       -0.08400        7.85500
