156
C:\Users\Javier\OneDrive - Universitat de Barcelona\Tesi\4 - Contribucions\Treballs\3-PhD\chapter_1\cif\pc2p\TEGYUB.pc2p.pdb
Pd         7.62700        1.61500        7.02500
Pd        16.06600        9.41900        7.02500
P          6.93200        3.27600        5.66600
P         15.33500        7.73800        5.68600
S          6.94000       -0.01700        5.43000
S         16.77400       11.09200        8.56300
N          8.33300       -0.91200        3.42300
N          9.41500        0.67100        4.79400
N         14.44400       10.24000        9.50100
N         15.56800       11.94800       10.71500
Cl        12.67300        3.07700        2.53300
Cl        14.44000        3.54900        0.35400
Cl        12.90400        5.60400        1.45100
Cl         5.77800        5.77200        1.66900
Cl         6.11100        8.05400        0.26900
Cl         4.06100        7.93100        2.14400
C          7.65300        4.87100        6.26900
H          8.57100        4.95500        5.96900
H          7.14500        5.61900        5.92100
C          7.28400        3.20300        3.88900
C          6.38300        2.65500        3.01000
H          5.56400        2.35300        3.33300
C          6.65200        2.53900        1.67500
H          6.01400        2.19700        1.09300
C          7.83500        2.92000        1.22200
H          8.02900        2.81400        0.31800
C          8.78900        3.46900        2.05100
H          9.60500        3.75100        1.70600
C          8.52000        3.59900        3.39700
H          9.16300        3.94800        3.97100
C          5.13900        3.51900        5.83100
C          4.46000        4.45900        5.05800
H          4.91200        4.95500        4.41500
C          3.12600        4.64200        5.25500
H          2.67800        5.27300        4.73800
C          2.42600        3.93200        6.18200
H          1.51100        4.06100        6.28300
C          3.09100        3.02500        6.96900
H          2.62900        2.55700        7.62700
C          4.45200        2.80100        6.78600
H          4.89500        2.17200        7.30600
C          8.37000       -0.08000        4.46500
C          9.47500       -0.94800        2.66100
H          9.49000       -1.48900        1.90500
C         10.56900       -0.23800        2.96200
H         11.33900       -0.30300        2.44800
C         10.51500        0.56500        4.02700
H         11.26400        1.07000        4.24600
C         16.10600        6.17800        6.26400
H         15.63300        5.41400        5.90100
H         17.03200        6.13300        5.97700
C         15.55200        7.75600        3.90300
C         16.52900        7.07600        3.25400
H         17.11800        6.55500        3.75100
C         16.68600        7.13100        1.85200
H         17.37300        6.66800        1.42800
C         15.80800        7.87900        1.14100
H         15.86100        7.87700        0.21100
C         14.85700        8.62900        1.74200
H         14.30700        9.19300        1.24800
C         14.72600        8.53200        3.11100
H         14.04700        9.01300        3.52400
C         13.56500        7.46700        5.97100
C         12.86700        6.50000        5.27200
H         13.29600        5.99000        4.62000
C         11.52100        6.29700        5.54700
H         11.04400        5.66300        5.06100
C         10.89800        7.00300        6.50800
H          9.99600        6.85100        6.67700
C         11.57900        7.95000        7.24400
H         11.14600        8.42800        7.91600
C         12.92300        8.17700        6.96900
H         13.39400        8.81100        7.45800
C         15.47300       11.09600        9.71400
C         13.47500       10.30400       10.40900
H         12.74500        9.73800       10.29900
C         13.47200       11.13700       11.48800
H         12.78400       11.14500       12.11100
C         14.55000       11.95300       11.58000
H         14.58400       12.55300       12.29100
C         13.77800        4.13800        1.78700
H         14.50400        4.33500        2.41700
C          5.51500        7.47800        1.81500
H          6.10600        7.81900        2.51800
P          8.32100        3.27600        8.38400
P         16.79600        7.73800        8.36400
S          8.31300       -0.01700        8.62000
S         15.35700       11.09200        5.48700
N          6.92000       -0.91200       10.62800
N          5.83800        0.67100        9.25600
N         17.68700       10.24000        4.55000
N         16.56300       11.94800        3.33600
C          7.60000        4.87100        7.78100
H          6.68200        4.95500        8.08200
H          8.10800        5.61900        8.13000
C          7.96900        3.20300       10.16100
C          8.87000        2.65500       11.04100
H          9.68900        2.35300       10.71800
C          8.60100        2.53900       12.37600
H          9.23900        2.19700       12.95700
C          7.41800        2.92000       12.82800
H          7.22400        2.81400       13.73300
C          6.46400        3.46900       11.99900
H          5.64800        3.75100       12.34500
C          6.73300        3.59900       10.65300
H          6.09000        3.94800       10.08000
C         10.11500        3.51900        8.21900
C         10.79300        4.45900        8.99200
H         10.34100        4.95500        9.63600
C         12.12700        4.64200        8.79600
H         12.57600        5.27300        9.31300
C         12.82700        3.93200        7.86800
H         13.74200        4.06100        7.76700
C         12.16200        3.02500        7.08100
H         12.62400        2.55700        6.42400
C         10.80100        2.80100        7.26400
H         10.35800        2.17200        6.74400
C          6.88300       -0.08000        9.58500
C          5.77800       -0.94800       11.38900
H          5.76400       -1.48900       12.14500
C          4.68400       -0.23800       11.08900
H          3.91400       -0.30300       11.60300
C          4.73800        0.56500       10.02400
H          3.98900        1.07000        9.80400
C         16.02500        6.17800        7.78700
H         16.49800        5.41400        8.14900
H         15.09900        6.13300        8.07300
C         16.57900        7.75600       10.14700
C         15.60200        7.07600       10.79600
H         15.01400        6.55500       10.29900
C         15.44500        7.13100       12.19900
H         14.75800        6.66800       12.62300
C         16.32400        7.87900       12.90900
H         16.27000        7.87700       13.84000
C         17.27400        8.62900       12.30800
H         17.82500        9.19300       12.80300
C         17.40500        8.53200       10.94000
H         18.08400        9.01300       10.52700
C         18.56700        7.46700        8.07900
C         19.26400        6.50000        8.77900
H         18.83600        5.99000        9.43100
C         20.61000        6.29700        8.50300
H         21.08700        5.66300        8.98900
C         21.23300        7.00300        7.54200
H         22.13500        6.85100        7.37400
C         20.55200        7.95000        6.80600
H         20.98600        8.42800        6.13400
C         19.20800        8.17700        7.08100
H         18.73700        8.81100        6.59200
C         16.65800       11.09600        4.33600
C         18.65600       10.30400        3.64200
H         19.38600        9.73800        3.75100
C         18.65900       11.13700        2.56300
H         19.34700       11.14500        1.93900
C         17.58100       11.95300        2.47000
H         17.54700       12.55300        1.75900
