96
C:\Users\Javier\OneDrive - Universitat de Barcelona\Tesi\4 - Contribucions\Treballs\3-PhD\chapter_1\cif\pc2p\TEJYUE.pc2p.pdb
Rh         1.76500        6.68400       -2.72700
P          1.96600        7.85500       -4.68400
C          1.05000        6.93800       -5.98600
H          0.10700        7.15600       -5.93400
H          1.37400        7.20600       -6.86100
Cl         2.14900        8.67200       -1.44700
N          3.62500        6.13700       -2.85000
O          4.19200        6.09400       -1.86700
P          1.02300        4.95500       -4.04600
C          1.23600        5.43800       -5.81200
H          2.12300        5.18400       -6.11300
H          0.58800        4.96600       -6.35800
Cl         0.91100        5.54800       -0.79000
C          3.70900        8.00300       -5.27500
H          4.11200        7.15100       -5.00500
C          3.98700        8.06400       -6.74400
H          3.62300        8.88700       -7.10700
H          3.54900        7.32200       -7.18700
C          5.49900        8.00700       -7.01900
H          5.83300        7.12800       -6.78600
H          5.65500        8.14500       -7.96700
C          6.26800        9.05700       -6.23200
H          7.21800        8.90100       -6.34500
H          6.06700        9.93200       -6.59700
C          5.95600        9.05500       -4.81300
H          6.34900        9.84500       -4.41200
H          6.37800        8.28200       -4.40900
C          4.49700        9.02900       -4.47400
H          4.12100        9.90900       -4.63400
H          4.39800        8.83300       -3.52900
C         -0.76100        4.62100       -3.76600
H         -0.83500        4.25400       -2.86000
C         -1.34600        3.56600       -4.70900
H         -1.30000        3.88800       -5.62100
H         -0.82000        2.75300       -4.64900
C         -2.80100        3.25900       -4.35100
H         -3.16700        2.62700       -4.99000
H         -2.84200        2.85200       -3.47100
C         -3.63300        4.54100       -4.36400
H         -3.64700        4.90700       -5.26100
H         -4.54600        4.33700       -4.10700
C         -3.05300        5.56000       -3.41000
H         -3.07600        5.20700       -2.50700
H         -3.59300        6.36600       -3.43100
C         -1.61200        5.90000       -3.79000
H         -1.25100        6.54600       -3.16300
H         -1.59100        6.29300       -4.67600
C          1.21400        9.53200       -4.62700
H          1.75100       10.06500       -4.00300
C         -0.21400        9.48000       -4.05700
H         -0.77600        8.95100       -4.64400
H         -0.19900        9.05000       -3.18800
C         -0.80000       10.88500       -3.92300
H         -1.71100       10.82400       -3.59400
H         -0.28200       11.38900       -3.27700
C         -0.79700       11.61900       -5.25400
H         -1.13200       12.52000       -5.12800
H         -1.38600       11.16200       -5.87600
C          0.61300       11.67400       -5.83800
H          1.17600       12.21700       -5.26400
H          0.58300       12.09400       -6.71100
C          1.21900       10.27200       -5.96800
H          0.71000        9.76200       -6.61600
H          2.13000       10.34400       -6.29000
C          1.79100        3.28000       -3.94000
H          1.40900        2.75300       -4.67300
C          3.30700        3.27800       -4.14900
H          3.51800        3.72700       -4.98300
H          3.73300        3.76700       -3.42800
C          3.85700        1.85400       -4.18700
H          3.47700        1.38100       -4.94300
H          4.82000        1.88200       -4.30300
C          3.52100        1.12100       -2.91000
H          3.96600        1.55100       -2.16200
H          3.84300        0.20800       -2.96600
C          2.02100        1.11400       -2.66900
H          1.83300        0.67900       -1.82400
H          1.58600        0.60500       -3.37200
C          1.45400        2.52800       -2.64700
H          1.82000        3.01000       -1.88900
H          0.49100        2.48800       -2.53900
C          8.10500       11.98300       -0.57800
H          9.05300       12.01600       -0.44400
H          7.65900       12.38700        0.17100
H          7.87600       12.45800       -1.38100
C          7.70500       10.67700       -0.69200
C          6.24100       10.23300       -0.91000
H          5.54900       10.84500       -1.00900
C          6.03100        8.93200       -0.94700
H          5.16000        8.62700       -1.05800
C          7.00800        8.03100       -0.83000
H          6.77900        7.13000       -0.82400
C          8.22800        8.34100       -0.72500
H          8.87600        7.67400       -0.71500
C          8.58500        9.59900       -0.63000
H          9.48800        9.78300       -0.51300
