39
C:\Users\Javier\OneDrive - Universitat de Barcelona\Tesi\4 - Contribucions\Treballs\3-PhD\chapter_1\cif\pc2p\TEPXUH.pc2p.pdb
Pd         1.42500        1.07300        4.71500
Cl         0.95200       -1.12100        5.50800
P          1.65200        3.20700        4.02700
P          0.38500        1.95400        6.64900
O          1.37200        0.45600        1.93700
C          2.06400        0.31000        2.89900
C          3.32200       -0.60700        2.76700
C          4.02000       -0.31000        1.44800
C          2.81200       -2.04300        2.72700
C          4.25600       -0.42600        3.93400
C          1.04700        4.33600        5.35500
C          0.04800        3.72400        6.29900
C          0.64900        3.55200        2.53500
C         -0.77300        3.00700        2.66900
C         -1.51600        3.13200        1.35400
C         -1.54400        4.57400        0.87000
C         -0.16700        5.16500        0.78100
C          0.59600        5.01500        2.09100
C          3.30600        3.94300        3.67700
C          3.90900        3.48400        2.38300
C          5.27700        4.13000        2.11500
C          6.22000        3.91900        3.28900
C          5.62600        4.37800        4.55400
C          4.28000        3.73800        4.83300
C          1.29900        1.93900        8.23800
C          1.45700        0.53600        8.81600
C          2.24100        0.55700       10.12600
C          3.58500        1.21400        9.96700
C          3.44500        2.60500        9.40500
C          2.65900        2.60800        8.09800
C         -1.27500        1.24100        7.03800
C         -2.14300        1.15500        5.78600
C         -3.47600        0.51000        6.07400
C         -4.21900        1.21100        7.20100
C         -3.37000        1.28100        8.44100
C         -2.02700        1.93200        8.16700
Cl        -0.73500        2.32900       21.09400
Cl         0.95400        0.41400       19.84200
C         -0.51300        0.73800       20.60600
