134
C:\Users\Javier\OneDrive - Universitat de Barcelona\Tesi\4 - Contribucions\Treballs\3-PhD\chapter_1\cif\pc2p\TIWKOB.pc2p.pdb
Sn         4.64600        4.11300       14.54600
Pd         3.25000        1.82600       14.62000
P          4.62200       -0.05200       14.83400
P          1.47900        0.35300       14.69400
Si         2.13600        3.96600       14.41500
Si         1.06300        4.50800       12.40600
Si         0.83200        4.82100       16.17700
Si         5.51700        4.80700       16.88200
Si         6.08900        4.96200       12.55200
Si         6.09200        3.42700       10.74300
Si         8.32800        5.15300       13.25200
Si         5.41400        7.17600       12.03800
C          2.12300        4.14800       10.90500
H          1.81100        4.68300       10.14700
H          2.05900        3.19700       10.68000
H          3.05600        4.37400       11.10100
C          0.65600        6.34100       12.39900
H          1.48300        6.86000       12.47600
H          0.07000        6.55000       13.15800
H          0.20100        6.57400       11.56200
C         -0.54600        3.56600       12.12900
H         -0.92400        3.81600       11.25900
H         -1.18300        3.79200       12.83900
H         -0.36700        2.60300       12.14500
C          1.45100        6.51700       16.68600
H          0.85700        6.89100       17.36800
H          1.46400        7.10800       15.90300
H          2.35800        6.43900       17.04900
C         -0.95400        5.04400       15.62000
H         -1.32700        4.17500       15.36600
H         -0.98200        5.64800       14.84900
H         -1.47900        5.42400       16.35300
C          0.76400        3.70900       17.68100
H          1.66600        3.39000       17.89200
H          0.18200        2.94200       17.49500
H          0.40800        4.21100       18.44300
C          7.19900        4.07500       17.29600
H          7.41000        4.24800       18.23600
H          7.88400        4.48300       16.72700
H          7.18100        3.10500       17.13900
C          5.61500        6.67400       17.06100
H          4.74600        7.06900       16.84000
H          6.29700        7.02300       16.45100
H          5.85300        6.90200       17.98200
C          4.33900        4.22700       18.22100
H          4.11900        3.28400       18.07400
H          3.51900        4.76100       18.18900
H          4.76400        4.33100       19.09700
C          5.55000        4.25700        9.14900
H          5.68700        3.64400        8.39800
H          6.08200        5.07000        9.00900
H          4.60100        4.49400        9.21000
C          7.79200        2.70300       10.40700
H          8.09400        2.20100       11.19300
H          8.42300        3.42900       10.21900
H          7.74400        2.10400        9.63400
C          5.00800        1.94700       11.08700
H          4.10800        2.25100       11.33200
H          5.38900        1.42800       11.82600
H          4.95600        1.38600       10.28500
C          8.91700        3.51400       13.95400
H          9.77000        3.64400       14.41900
H          9.03800        2.87100       13.22400
H          8.25000        3.17100       14.58500
C          9.45600        5.61300       11.81700
H          9.08100        6.38500       11.34100
H          9.52900        4.85500       11.20300
H         10.34500        5.84300       12.16100
C          8.57100        6.48900       14.54600
H          8.01600        6.29100       15.32800
H          8.31200        7.35600       14.17100
H          9.51500        6.51700       14.81200
C          6.83100        8.23800       11.41600
H          6.51700        9.15700       11.28700
H          7.15900        7.88200       10.56500
H          7.55700        8.23200       12.07500
C          4.77400        7.98600       13.60200
H          5.48600        8.00100       14.27400
H          4.01000        7.47500       13.94400
H          4.49100        8.90300       13.40200
C          4.08900        7.29700       10.72000
H          3.31300        6.76300       10.98700
H          4.44200        6.96000        9.87100
H          3.82100        8.23400       10.61200
C          3.51700       -1.48100       14.41900
H          3.36200       -1.51700       13.44100
H          3.94200       -2.33000       14.69900
C          2.17900       -1.29600       15.15600
H          2.32200       -1.34100       16.13400
H          1.54900       -2.01700       14.90000
C          6.18300       -0.47100       13.96400
C          6.19500       -1.16000       12.77100
H          5.37300       -1.44700       12.38800
C          7.38900       -1.44500       12.12000
H          7.38000       -1.94500       11.31200
C          8.57300       -1.00800       12.63600
H          9.38700       -1.18700       12.17800
C          8.58500       -0.30900       13.81900
H          9.40800       -0.00200       14.18100
C          7.39500       -0.04600       14.48800
H          7.41100        0.43000       15.30900
C          5.06600       -0.37200       16.58000
C          5.31100        0.70800       17.40300
H          5.22200        1.58900       17.05300
C          5.68300        0.54100       18.72500
H          5.88300        1.29500       19.26700
C          5.76200       -0.73000       19.24700
H          5.99000       -0.85400       20.16000
C          5.51500       -1.82100       18.44700
H          5.57100       -2.69700       18.80700
C          5.18400       -1.63900       17.12400
H          5.03400       -2.39700       16.57200
C          0.82100       -0.02700       13.03300
C          1.54400        0.45100       11.94800
H          2.28400        1.02800       12.09400
C          1.19900        0.09300       10.65100
H          1.71100        0.41500        9.91800
C          0.11900       -0.72600       10.42800
H         -0.11500       -0.98000        9.54400
C         -0.62500       -1.17600       11.50800
H         -1.38900       -1.71900       11.35100
C         -0.27900       -0.85100       12.80400
H         -0.78500       -1.18700       13.53300
C          0.01900        0.50900       15.78600
C         -1.11700        1.19100       15.37000
H         -1.17600        1.51500       14.47800
C         -2.16800        1.40400       16.25100
H         -2.94500        1.86000       15.95400
C         -2.09900        0.95800       17.55800
H         -2.81900        1.11300       18.15800
C         -0.97400        0.28700       17.97800
H         -0.91300       -0.01700       18.87600
C          0.07200        0.05200       17.10000
H          0.83600       -0.42800       17.39900
