126
C:\Users\Javier\OneDrive - Universitat de Barcelona\Tesi\4 - Contribucions\Treballs\3-PhD\chapter_1\cif\pc2p\TIWKIV.pc2p.pdb
Pd         4.56600       11.03500        4.42900
Sn         3.58900        8.80200        3.33600
P          2.77800       12.41200        4.91700
P          5.91100       12.74000        5.20600
Si         3.30000        6.90000        5.06300
Si         5.49100        6.54600        5.84400
Si         7.03600        7.60900        4.42700
Si         6.01400        9.42100        3.37500
Si         2.15200        8.92600        1.20900
Si         1.86300        7.48300        6.82500
Si         2.45800        4.99800        4.03300
Si         7.05400       10.04700        1.37200
C          5.71100        7.23500        7.62700
H          5.11600        6.75400        8.23800
H          5.48700        8.19000        7.63800
H          6.64000        7.11500        7.91100
C          5.90900        4.69200        5.94500
H          6.81400        4.57900        6.30600
H          5.86500        4.29600        5.04800
H          5.26600        4.24200        6.53100
C          7.57800        6.32500        3.11800
H          8.13000        6.76700        2.43900
H          6.78600        5.93500        2.69500
H          8.09900        5.61700        3.55300
C          8.56300        8.10400        5.46600
H          8.86500        7.33300        5.99100
H          8.32300        8.83800        6.07200
H          9.28400        8.39700        4.87200
C          2.67600       10.43500        0.19300
H          2.21500       10.42100       -0.67200
H          3.64500       10.40900        0.04800
H          2.43900       11.25300        0.67600
C          0.31900        9.03600        1.50100
H         -0.15400        8.95100        0.64600
H          0.10400        9.90200        1.90800
H          0.04000        8.31400        2.10100
C          2.46700        7.42400        0.11800
H          2.03200        6.63800        0.51000
H          3.43200        7.26400        0.05300
H          2.10200        7.58700       -0.77500
C          2.27700        9.17400        7.51100
H          2.49900        9.09600        8.46300
H          1.50600        9.76900        7.40400
H          3.04400        9.54500        7.02600
C          0.10400        7.45600        6.18300
H         -0.14400        6.53700        5.94900
H          0.03700        8.02400        5.38700
H         -0.50200        7.79200        6.87700
C          1.97100        6.26900        8.26000
H          1.35100        6.54400        8.96800
H          2.88600        6.25900        8.61200
H          1.73200        5.37100        7.94700
C          0.84200        5.29400        3.14600
H          0.70700        4.59500        2.47200
H          0.86600        6.16900        2.70700
H          0.10700        5.27100        3.79200
C          2.14000        3.65500        5.29700
H          1.34300        3.88300        5.82000
H          2.91200        3.58100        5.89400
H          1.99700        2.80100        4.83700
C          3.66700        4.29000        2.79000
H          3.58500        3.31300        2.77400
H          4.58100        4.53800        3.04800
H          3.46900        4.64900        1.90100
C          6.51500        8.87500        0.00700
H          6.85200        9.20000       -0.85500
H          5.53600        8.83500       -0.02000
H          6.87400        7.98100        0.18200
C          8.92300        9.93700        1.51000
H          9.18300        9.01200        1.70200
H          9.23200       10.52000        2.23600
H          9.33100       10.22300        0.66700
C          6.59300       11.79200        0.83600
H          7.04100       12.00300       -0.01100
H          6.87700       12.43000        1.52300
H          5.62300       11.85200        0.71500
C          3.40300       13.66700        6.14800
H          2.79300       14.44500        6.18300
H          3.45300       13.26500        7.05000
C          4.77700       14.10100        5.69500
H          5.20100       14.61500        6.42800
H          4.67400       14.71300        4.92300
C          1.11100       11.98900        5.56200
C          0.34100       11.14400        4.77000
H          0.68100       10.81600        3.94700
C         -0.93400       10.78600        5.20100
H         -1.46200       10.21700        4.65600
C         -1.44300       11.23400        6.38600
H         -2.31100       10.97000        6.66700
C         -0.68000       12.07600        7.17000
H         -1.02800       12.39400        7.99300
C          0.58600       12.46000        6.76300
H          1.09900       13.04700        7.30600
C          2.38100       13.46900        3.45900
C          1.21600       14.22400        3.38300
H          0.60100       14.23000        4.10700
C          0.95700       14.97300        2.23800
H          0.14400       15.45900        2.16800
C          1.87800       15.01300        1.19300
H          1.70700       15.54200        0.42200
C          3.02400       14.28500        1.28900
H          3.64900       14.30700        0.57300
C          3.30000       13.51300        2.40400
H          4.11000       13.01600        2.45300
C          7.23500       13.54200        4.25100
C          7.05400       14.70400        3.51400
H          6.22100       15.15800        3.56400
C          8.05200       15.22500        2.70600
H          7.92300       16.04700        2.24700
C          9.22900       14.53700        2.57900
H          9.91800       14.87800        2.02000
C          9.42400       13.32900        3.26400
H         10.23600       12.84500        3.17200
C          8.42000       12.86000        4.07000
H          8.54400       12.03200        4.52000
C          6.73700       12.39000        6.78300
C          7.56900       13.29900        7.44600
H          7.72600       14.15100        7.05800
C          8.17400       12.97700        8.66900
H          8.71300       13.62100        9.11500
C          7.99300       11.74400        9.22200
H          8.41700       11.52100       10.04200
C          7.18800       10.82100        8.58300
H          7.06000        9.96200        8.96800
C          6.56600       11.13300        7.38600
H          6.01500       10.48600        6.96600
