73
C:\Users\Javier\OneDrive - Universitat de Barcelona\Tesi\4 - Contribucions\Treballs\3-PhD\chapter_1\cif\pc2p\TIZJAO01.pc2p.pdb
Pd         0.61200        3.70400       13.33500
S         -0.96600        4.69800       11.86400
S         -1.10100        2.26100       14.13300
P          2.28800        4.95000       12.43500
P          2.19500        3.01500       14.81300
N         -2.20700        6.98800       12.04000
N         -0.60600        6.54400       13.74000
N         -0.72100        1.60100       11.59100
N         -2.89100        1.20200       12.49200
C         -1.27400        6.21700       12.64200
C         -2.40100        8.18300       12.59700
C         -1.72100        8.64100       13.66600
C         -0.82600        7.76900       14.22500
C         -1.60800        1.63300       12.59300
C         -1.17000        1.15900       10.42000
C         -2.44700        0.74800       10.20900
C         -3.27000        0.78300       11.29900
C          2.89200        4.17600       10.90600
C          2.14900        3.20000       10.26300
C          2.63300        2.62300        9.09700
C          3.85200        2.98900        8.59000
C          4.59700        3.94300        9.23500
C          4.12600        4.54600       10.38200
C          2.05200        6.69600       12.02700
C          1.34300        7.04500       10.89100
C          1.04500        8.37100       10.62200
C          1.46900        9.35600       11.46700
C          2.18500        9.05500       12.57700
C          2.48700        7.71300       12.87600
C          3.72000        4.88700       13.57000
C          3.82600        3.48300       14.13900
C          2.06600        4.00700       16.33800
C          1.38400        5.21400       16.31800
C          1.32300        5.97700       17.47500
C          1.90400        5.55500       18.63200
C          2.58000        4.36400       18.64900
C          2.66900        3.59100       17.51600
C          2.40400        1.31600       15.42900
C          3.59200        0.63100       15.29100
C          3.73200       -0.63200       15.84200
C          2.71500       -1.20900       16.52400
C          1.52800       -0.54500       16.64900
C          1.36200        0.71700       16.10200
H          3.12600        2.79300       17.52000
H          2.11700        2.00000        8.65400
H          0.53400        1.14700       16.17700
H          5.41000        4.18500        8.89800
H          1.34000        2.93100       10.62500
H          4.64500        5.19900       10.80100
H          1.07800        6.38300       10.29400
H          3.55100        5.49100       14.28400
H          4.49400        5.11400       13.10000
H          4.50600        3.44200       14.82400
H          4.00800        2.88200       13.38900
H          4.54200       -1.07700       15.76500
H          0.96900        5.51000       15.51100
H          4.30700        1.01600       14.85200
H         -0.57100        1.14300        9.70500
H         -4.14600        0.49100       11.21000
H          2.84400       -2.03900       16.92500
H         -2.74700        0.47000        9.37700
H         -1.85900        9.48800       14.00200
H         -3.09500        8.71300       12.17600
H          0.83200       -0.92200       17.10500
H         -0.33900        8.02300       14.98200
H          0.87100        6.76100       17.46400
H          1.81400        6.06400       19.39900
H          2.99500        4.07200       19.42400
H          2.95000        7.49800       13.63200
H          1.26100       10.24700       11.32700
H          4.16900        2.59100        7.81500
H          2.46400        9.72400       13.18800
H          0.55700        8.58400        9.86400
