76
C:\Users\Javier\OneDrive - Universitat de Barcelona\Tesi\4 - Contribucions\Treballs\3-PhD\chapter_1\cif\pc2p\TOPHAI.pc2p.pdb
Ru         4.03700        7.86100       14.64800
P          5.35500        7.65100       12.85200
C          5.20800        5.99300       12.09600
C          4.51300        5.78600       10.92100
C          4.28300        4.51000       10.44500
C          4.77200        3.40600       11.13600
C          5.48000        3.60400       12.30300
C          5.67900        4.88700       12.76600
C          5.12000        8.76900       11.43600
C          4.15100        9.75800       11.45200
C          3.95700       10.59400       10.38400
C          4.76300       10.46000        9.27000
C          5.70900        9.45600        9.20600
C          5.89000        8.63400       10.29500
C          7.16000        7.81600       13.29100
C          7.29000        8.37900       14.71200
P          5.98200        7.65500       15.78000
C          6.66200        6.03500       16.27200
C          7.94300        5.60900       15.90900
C          8.47700        4.42600       16.40800
C          7.74000        3.66700       17.30700
C          6.46200        4.08100       17.68400
C          5.93300        5.24300       17.16200
C          6.17700        8.51300       17.38700
C          5.10400        9.15000       17.96800
C          5.23800        9.73200       19.21600
C          6.42800        9.67000       19.89800
C          7.50600        9.03300       19.30500
C          7.39000        8.45000       18.06600
C          4.55200        9.77400       14.68400
C          4.89100       10.93000       14.70300
C          5.35800       12.28400       14.70300
C          6.26100       12.74000       15.63500
F          6.73600       11.89100       16.57000
C          6.75600       14.02100       15.61600
F          7.69100       14.40500       16.51600
C          6.31300       14.91300       14.68900
F          6.76300       16.17100       14.71000
C          5.40200       14.50300       13.74100
F          4.99000       15.36600       12.80600
C          4.96800       13.21000       13.74800
F          4.15200       12.82800       12.77100
C          2.60700        6.51400       15.73400
C          1.86400        8.24100       14.44100
C          2.18900        7.18900       13.60500
C          2.64700        6.12800       14.39900
C          2.10100        7.85000       15.79700
H          4.16600        6.54900       10.44400
H          3.76900        4.37100        9.63800
H          4.64900        2.53500       10.76400
H          5.79400        2.84700       12.80600
H          6.18200        5.03700       13.59200
H          3.60700        9.85100       12.25100
H          3.29000       11.28200       10.41200
H          4.59800       11.04100        8.51700
H          6.29300        9.38200        8.42200
H          6.56600        7.92400       10.25600
H          7.59100        6.96900       13.23900
H          7.59000        8.41200       12.67100
H          7.20400        9.32800       14.69300
H          8.15100        8.15800       15.07000
H          8.47000        6.14800       15.29100
H          9.34200        4.12300       16.14600
H          8.12000        2.87500       17.69600
H          5.94400        3.55300       18.28900
H          5.07000        5.54100       17.44600
H          4.27400        9.21100       17.47900
H          4.49000       10.17200       19.62900
H          6.53400       10.07400       20.75500
H          8.34300        8.98700       19.77500
H          8.13000        8.01500       17.65400
H          1.52700        9.11800       14.19600
H          2.08800        7.17300       12.66500
H          2.92700        5.28300       14.09200
H          2.88200        5.96300       16.48900
H          1.97900        8.36900       16.59800
