39
C:\Users\Javier\OneDrive - Universitat de Barcelona\Tesi\4 - Contribucions\Treballs\3-PhD\chapter_1\cif\pc2p\TOXZUB.pc2p.pdb
Ru         2.11700       -1.92200        6.33700
P          2.06300       -1.97600        4.05200
P          4.16700       -2.89300        6.06100
N          2.86500       -0.02700        6.11800
O          3.69400        0.31200        5.28200
O          2.47400        0.85700        6.90300
C          1.08300       -3.33000        3.25200
C          0.86800       -4.48900        3.95200
C          0.11000       -5.52500        3.37500
C         -0.42800       -5.34800        2.12800
C         -0.20700       -4.17900        1.40600
C          0.54100       -3.19900        1.99700
C          1.42800       -0.51600        3.16400
C          1.91200       -0.05800        1.95900
C          1.27600        0.98200        1.27000
C          0.16900        1.58800        1.80300
C         -0.26600        1.18400        3.04900
C          0.34400        0.14800        3.73700
C          5.65900       -2.03400        6.70700
C          6.93900       -2.46900        6.35200
C          8.04600       -1.82100        6.87800
C          7.91600       -0.76200        7.73800
C          6.65600       -0.35200        8.08300
C          5.53300       -0.96900        7.58200
C          4.37100       -4.55700        6.80500
C          4.93900       -4.72100        8.07500
C          5.02000       -5.97800        8.68400
C          4.55300       -7.08100        8.02000
C          3.97700       -6.93100        6.76700
C          3.86100       -5.70300        6.19100
C          1.68300       -2.82300        8.35000
C          1.16900       -1.55500        8.33400
C          0.18600       -1.49000        7.33500
C          0.07500       -2.72500        6.72300
C          1.03200       -3.57400        7.32900
C          3.77500       -2.19900        3.40500
C          4.51300       -3.20500        4.27100
O          0.67300        2.77900        8.62200
C          0.49500        2.90300        7.24500
