152
C:\Users\Javier\OneDrive - Universitat de Barcelona\Tesi\4 - Contribucions\Treballs\3-PhD\chapter_1\cif\pc2p\TURSUX.pc2p.pdb
Rh        12.18500        3.77600        0.70400
P         13.18800        5.05800        2.16400
P         13.24000        4.98400       -0.77800
N         11.21600        2.49000        2.16500
H         10.36900        2.30100        1.89000
H         11.18600        2.91500        2.96900
H         11.68800        1.71600        2.24800
N         11.30900        2.43300       -0.74000
H         11.28900        2.83600       -1.55600
H         10.46100        2.22400       -0.48400
H         11.80800        1.67400       -0.79000
C         14.13800        6.39500        1.32500
H         13.54900        7.16900        1.14200
H         14.88500        6.69500        1.89900
C         14.67500        5.81400        0.01500
H         15.40000        5.16600        0.19300
H         15.02800        6.53500       -0.56700
C         14.46000        4.38500        3.34100
H         15.36800        4.64200        3.01000
C         14.20400        5.11100        4.67300
H         13.74100        4.49700        5.29600
H         15.07200        5.36300        5.07900
C         13.37500        6.34000        4.48500
H         13.92500        7.07900        4.12500
H         12.98300        6.62700        5.34700
C         12.26600        5.95000        3.48700
H         11.67900        5.28200        3.94300
C         11.37700        7.07500        3.01000
H         10.77400        7.34600        3.73300
H         10.84600        6.76800        2.24400
H         11.92900        7.83700        2.74100
C         14.41600        2.89700        3.50700
H         15.13500        2.61200        4.10700
H         14.53300        2.46800        2.63300
H         13.55100        2.63700        3.88500
C         12.41100        6.40200       -1.65300
H         12.72200        7.25200       -1.22900
C         12.94400        6.36400       -3.11700
H         12.22900        6.04000       -3.71900
H         13.18900        7.28100       -3.40100
C         14.14900        5.46100       -3.23400
H         14.96400        5.94400       -2.94700
H         14.27000        5.17400       -4.17400
C         13.91700        4.24700       -2.34000
H         13.19300        3.69500       -2.75700
C         10.91600        6.36000       -1.56500
H         10.53900        7.11400       -2.06700
H         10.64000        6.42100       -0.62700
H         10.59000        5.51800       -1.94800
C         15.12000        3.36000       -2.15200
H         15.40900        3.01300       -3.02100
H         14.88500        2.61200       -1.56300
H         15.84800        3.87900       -1.74700
Rh        15.03400       22.16200       17.19400
P         16.59000       22.11100       15.67000
P         16.58300       21.35600       18.50900
N         13.45600       22.22700       18.68500
H         12.90000       22.92400       18.50800
H         13.82200       22.33500       19.51100
H         12.98300       21.44900       18.66200
N         13.45600       22.79000       15.85400
H         13.78500       22.85400       15.00800
H         13.13900       23.59900       16.11800
H         12.78100       22.17900       15.87200
C         18.02800       21.07500       16.24700
H         17.82200       20.11000       16.15000
H         18.83900       21.28100       15.72000
C         18.23400       21.42700       17.69300
H         18.61800       22.33700       17.77300
H         18.85700       20.78500       18.11800
C         17.39700       23.67600       15.09100
H         18.35900       23.66700       15.36400
C         17.31200       23.63700       13.54100
H         16.48700       24.09500       13.24100
H         18.09000       24.10600       13.15100
C         17.29400       22.22100       13.08200
H         18.18600       21.80700       13.19800
H         17.04200       22.16800       12.12800
C         16.25100       21.51100       13.95800
H         15.35700       21.87000       13.69500
C         16.74000       24.94100       15.63200
H         17.12300       25.72500       15.18700
H         16.89700       25.00200       16.59800
H         15.77500       24.90500       15.46000
C         16.17600       20.01600       13.84100
H         15.81500       19.77500       12.96300
H         15.59100       19.66100       14.54200
H         17.07500       19.63500       13.94200
C         16.45200       19.55400       19.00100
H         17.31800       19.12000       18.75900
C         16.36300       19.56200       20.52500
H         15.42900       19.72200       20.81400
H         16.66300       18.69400       20.89300
C         17.26600       20.68700       21.00900
H         18.21400       20.46300       20.83700
H         17.14700       20.82700       21.98300
C         16.86700       21.95300       20.23600
H         15.98600       22.26000       20.59700
C         15.35900       18.78200       18.30600
H         15.42900       17.83300       18.54400
H         15.45500       18.88300       17.33700
H         14.48700       19.12600       18.58600
C         17.84400       23.11300       20.36200
H         17.83100       23.45200       21.28000
H         17.58100       23.82700       19.74400
H         18.74700       22.80400       20.14000
B          8.70500       21.86800        0.45900
F          7.63300       21.67500       -0.35800
F          8.71200       23.19200        0.87500
F          9.88100       21.61400       -0.23600
F          8.63900       21.02600        1.55200
B         14.07500       21.82400        0.62200
F         13.14400       22.03900        1.65500
F         14.25700       20.45300        0.51100
F         15.24100       22.46600        0.88400
F         13.52700       22.28500       -0.57900
C         22.69200        0.77600        0.00000
H         23.36500        1.44900        0.00000
C         21.40100        1.14400        0.31600
H         21.18600        2.04500        0.52600
C         20.42800        0.16700        0.31400
H         19.52500        0.37900        0.52600
C         20.79000       -1.12600        0.00000
H         20.11900       -1.79700        0.00000
C         -0.45400       22.37000       16.79500
H         -1.12600       23.04300       16.79500
C         -0.01300       21.88800       15.58300
H         -0.36400       22.21400       14.76400
C          0.96000       20.91000       15.60800
H          1.28000       20.55300       14.78600
C          1.47700       20.43900       16.79500
H          2.14800       19.76800       16.79500
C         18.12700        3.84000        3.37900
H         17.81800        3.20900        4.02000
C         18.71400        5.02800        3.79900
H         18.80600        5.20900        4.72700
C         19.16600        5.94800        2.86200
H         19.56900        6.75900        3.14800
C         19.03200        5.68300        1.50500
H         19.34100        6.31200        0.86400
C         18.44500        4.49500        1.08400
H         18.35000        4.31300        0.15700
C         17.99100        3.57200        2.02000
H         17.59000        2.76100        1.73300
C         23.06000       -0.51500       -0.31600
H         23.96100       -0.73000       -0.52600
C         22.08300       -1.48800       -0.31400
H         22.29500       -2.39100       -0.52600
C          0.02800       21.92900       18.00600
H         -0.29800       22.28000       18.82600
C          1.00600       20.95600       17.98100
H          1.36300       20.63600       18.80300
