103
C:\Users\Javier\OneDrive - Universitat de Barcelona\Tesi\4 - Contribucions\Treballs\3-PhD\chapter_1\cif\pc2p\TURTEI.pc2p.pdb
Rh        12.04700        9.50200        9.84300
P         11.89900        7.99800       11.42600
P         12.59700       10.90200       11.44200
N         12.09700       10.94000        8.21100
H         12.81000       10.76500        7.67400
H         12.17100       11.78200        8.55000
H         11.33000       10.87500        7.72700
N         11.66500        8.11000        8.21200
H         10.90000        8.35000        7.78300
H         11.57600        7.26900        8.54700
H         12.36200        8.13100        7.62600
C         12.53300        8.63500       13.04500
H         12.04800        8.19800       13.78900
H         13.49500        8.42100       13.13400
C         12.33000       10.14900       13.11200
H         12.96800       10.54100       13.76000
H         11.41100       10.34700       13.42400
C         14.36500       11.47300       11.42300
H         14.39900       12.36000       11.88400
C         14.83300       11.68500        9.98900
H         14.22600       12.32700        9.54200
H         14.77900       10.82700        9.50000
C         16.26500       12.21600        9.90700
H         16.55000       12.25700        8.96100
H         16.30000       13.13300       10.28000
C         17.21200       11.31500       10.68600
H         17.26300       10.43200       10.24100
H         18.11900       11.71100       10.68300
C         16.75200       11.13200       12.10600
H         16.75800       12.00600       12.57100
H         17.37800       10.52900       12.58100
C         15.34200       10.54000       12.15000
H         15.05700       10.42700       13.09100
H         15.34000        9.65000       11.71700
C         11.70100       12.51900       11.58400
H         12.00700       13.08900       10.82300
C         10.19600       12.32900       11.42000
H          9.86400       11.71900       12.12600
H         10.01200       11.90800       10.54200
C          9.44600       13.66500       11.51000
H          9.70800       14.24100       10.74900
H          8.47200       13.49900       11.44700
C          9.75400       14.37800       12.81300
H          9.27500       15.24500       12.83900
H          9.44100       13.82900       13.57500
C         11.24700       14.61700       12.93500
H         11.44100       15.07400       13.79200
H         11.55000       15.20600       12.19700
C         12.01000       13.29500       12.87800
H         11.76300       12.74000       13.66000
H         12.98300       13.47600       12.92800
C         12.85900        6.43500       11.18400
H         12.38300        5.91200       10.47800
C         14.25400        6.74700       10.63700
H         14.17000        7.27200        9.80300
H         14.74700        7.29900       11.29600
C         15.04500        5.46900       10.35400
H         14.60800        4.96800        9.62100
H         15.95900        5.70800       10.05900
C         15.13100        4.58800       11.58400
H         15.64600        5.05400       12.28900
H         15.60800        3.75000       11.35800
C         13.74400        4.25500       12.10800
H         13.82400        3.70900       12.92900
H         13.25700        3.72100       11.43200
C         12.95200        5.52900       12.41600
H         12.04100        5.28600       12.71500
H         13.39500        6.02100       13.15300
C         10.19700        7.37700       11.80600
H         10.28700        6.58600       12.41000
C          9.32700        8.41900       12.52100
H          9.76400        8.69000       13.36500
H          9.23600        9.22100       11.94900
C          7.94500        7.84900       12.82300
H          8.03400        7.07300       13.43200
H          7.39800        8.53600       13.28000
C          7.24300        7.41100       11.54300
H          6.36400        7.01100       11.76700
H          7.08400        8.20000       10.96700
C          8.08400        6.39600       10.79400
H          7.64700        6.18200        9.93300
H          8.13900        5.56200       11.32500
C          9.49700        6.91400       10.52600
H          9.44900        7.67000        9.88900
H         10.03200        6.19500       10.10600
O          9.39300       10.01500        7.11900
C          8.41100       10.13400        8.15300
H          8.01400       11.04100        8.15200
H          8.81800        9.96600        9.04000
C          7.35400        9.08900        7.84700
H          7.40100        8.34000        8.49300
H          6.44700        9.48400        7.88100
C          7.68200        8.62000        6.45700
H          8.07700        7.71300        6.47400
H          6.87200        8.60600        5.88800
C          8.67600        9.62700        5.95000
H          9.28100        9.22100        5.28000
H          8.21700       10.40400        5.54300
B          3.68500        8.96500        5.89200
F          3.85800        7.79000        6.55800
F          4.20400       10.02400        6.57100
F          4.20200        8.86800        4.63400
F          2.31700        9.22100        5.78000
