117
C:\Users\Javier\OneDrive - Universitat de Barcelona\Tesi\4 - Contribucions\Treballs\3-PhD\chapter_1\cif\pc2p\UDECUB.pc2p.pdb
Pd         6.69100       10.46200       22.18800
P          6.29500        9.65500       20.15900
C          4.97800        8.38700       20.32700
H          4.74100        8.18200       19.54700
H          5.44000        7.56500       20.68500
C          7.64100        8.82300       19.31500
H          7.95500        8.11700       20.02700
H          8.17900        9.34500       19.28800
H          7.35100        8.41400       18.43100
C          5.65200       10.83400       18.95800
H          5.42100       10.40100       17.99900
H          6.21900       11.50200       18.85700
H          5.07400       11.39100       19.25300
P          4.65700        9.44900       22.83800
C          3.91200        8.86200       21.25700
H          3.07400        8.20000       21.50900
H          3.48600        9.60600       20.80200
C          3.28500       10.32800       23.63700
H          3.26400       11.09100       23.37500
H          2.31900        9.76300       23.73300
H          3.38000       10.56600       24.57700
C          4.82400        7.93200       23.82700
H          5.08600        8.13100       24.65900
H          3.86400        7.60900       24.04800
H          5.26500        7.26200       23.32500
C          7.95200       10.53200       24.35900
H          8.72600       10.15200       23.86900
C          7.73200       11.81600       23.79300
C          6.64700       12.53600       24.29200
H          6.45600       13.33400       24.04800
C          5.91500       12.05300       25.34100
H          5.15800       12.66600       25.65100
C          6.17800       10.86200       25.90100
H          5.86800       10.47300       26.58300
C          7.20900       10.07800       25.42300
H          7.37600        9.14100       25.99000
C          8.65900       12.30800       22.67900
C          8.25500       13.72400       22.21900
H          8.93100       14.07200       21.60100
H          8.18900       14.31400       22.99900
H          7.38700       13.68400       21.76600
C         10.11100       12.35500       23.17900
H         10.10700       12.99900       23.79500
H         10.45000       11.41800       23.42200
H         10.72500       12.79400       22.28400
C          8.46800       11.29600       21.54600
H          8.28800       11.49900       20.77400
H          9.36700       10.71600       21.32600
B          1.04100        6.93900       17.71400
C         -0.25300        6.07600       17.14000
C         -1.31100        5.63700       17.92900
H         -1.26700        5.69300       18.78800
C         -2.45700        5.04300       17.38000
C         -2.57100        4.84000       16.01900
H         -3.32700        4.46000       15.71700
C         -1.53600        5.26800       15.20000
C         -0.41400        5.86600       15.76900
H          0.22600        6.12600       15.10900
C         -3.56900        4.68000       18.29800
F         -3.19300        3.83900       19.22600
F         -4.09600        5.72700       18.88400
F         -4.58200        4.05400       17.68900
C         -1.64100        5.15700       13.74300
F         -0.55200        4.62800       13.17200
F         -2.64500        4.37300       13.32500
F         -1.79000        6.33600       13.14000
C          1.34900        6.58100       19.28000
C          2.40200        5.72100       19.67800
H          2.99500        5.36500       18.98800
C          2.57700        5.35100       21.00000
C          1.73700        5.81300       21.98900
H          1.80000        5.49800       22.80300
C          0.69200        6.67300       21.63800
C          0.53800        7.04700       20.30900
H         -0.11300        7.67500       20.10400
C          3.73200        4.49900       21.41300
F          4.74400        5.21000       21.91200
F          3.41500        3.60500       22.32300
F          4.27500        3.81600       20.41100
C         -0.18600        7.23600       22.67200
F         -1.46600        7.39000       22.27400
F          0.18500        8.47100       23.04800
F         -0.26800        6.50600       23.78000
C          0.62200        8.53400       17.53300
C          1.15000        9.53200       18.36500
H          1.61000        9.32100       18.94400
C          0.78400       10.89300       18.25100
C         -0.08400       11.29000       17.27100
H         -0.32300       12.19600       17.21200
C         -0.62000       10.33800       16.42000
C         -0.28000        8.99400       16.55600
H         -0.68400        8.29100       15.90600
C          1.40900       11.90700       19.14400
F          0.60500       12.93600       19.38900
F          2.51000       12.44500       18.58700
F          1.78600       11.44100       20.31400
C         -1.55600       10.78200       15.35900
F         -1.04200       11.77300       14.61400
F         -1.93300        9.82100       14.51500
F         -2.69800       11.28700       15.87600
C          2.35000        6.62600       16.76600
C          2.57100        5.35000       16.22700
H          1.90900        4.69500       16.42000
C          3.60400        5.04200       15.36900
C          4.53400        6.03000       15.03500
H          5.17100        5.86500       14.47300
C          4.41100        7.27600       15.61900
C          3.32100        7.56700       16.45000
H          3.25200        8.41300       16.76600
C          3.71300        3.70000       14.76000
F          3.12900        3.64900       13.58700
F          4.91700        3.31900       14.48800
F          3.17300        2.77500       15.40600
C          5.47800        8.30700       15.36100
F          5.96400        8.23800       14.12400
F          5.05500        9.55700       15.54900
F          6.52200        8.13600       16.18500
