85
C:\Users\Javier\OneDrive - Universitat de Barcelona\Tesi\4 - Contribucions\Treballs\3-PhD\chapter_1\cif\pc2p\UFAWIK.pc2p.pdb
Pd         0.00000        7.74700       11.13400
S         -0.92100        9.78300       13.70400
P          0.22000        6.25700        9.45800
O          2.44400        9.32500       12.22900
O         -1.85800       10.62900       13.07000
O         -1.48800        8.71300       14.49100
N          0.17200        9.23200       12.63500
C         -0.29100        7.03600        7.87600
H          0.05200        6.53000        7.12400
H         -1.25900        7.06700        7.81200
C          1.99100        5.91000        9.20700
C          2.96400        6.60400        9.94000
H          2.71000        7.25500       10.55400
C          4.32000        6.31300        9.74700
H          4.96700        6.78400       10.22100
C          4.70000        5.33300        8.85800
H          5.60100        5.14000        8.73400
C          3.73400        4.63300        8.14700
H          3.99000        3.95400        7.56500
C          2.39400        4.94000        8.30100
H          1.75600        4.49200        7.79400
C         -0.57800        4.64500        9.55500
C         -1.48600        4.17100        8.61800
H         -1.70400        4.70500        7.88900
C         -2.06200        2.96100        8.73400
H         -2.67400        2.66700        8.09800
C         -1.72600        2.13200        9.84900
H         -2.14200        1.30600        9.94500
C         -0.78900        2.53500       10.78900
H         -0.52600        1.98000       11.48800
C         -0.25300        3.83300       10.63200
H          0.33800        4.15600       11.27200
C          1.46100        9.66100       12.90300
C          1.49700       10.56700       14.09000
C          2.58300       11.17300       14.63700
H          3.42600       11.01400       14.27500
C          2.46100       12.00400       15.70100
H          3.20200       12.43600       16.05700
C          1.19300       12.19100       16.24200
H          1.09000       12.78900       16.94700
C          0.08100       11.51900       15.76500
H         -0.74800       11.59500       16.18000
C          0.26700       10.70400       14.61000
P         -0.22000        9.23800        9.45800
C          0.29100        8.45900        7.87600
H         -0.05200        8.96500        7.12400
H          1.25900        8.42800        7.81200
C         -1.99100        9.58500        9.20700
C         -2.96400        8.89100        9.94000
H         -2.71000        8.23900       10.55400
C         -4.32000        9.18200        9.74700
H         -4.96700        8.71100       10.22100
C         -4.70000       10.16100        8.85800
H         -5.60100       10.35500        8.73400
C         -3.73400       10.86200        8.14700
H         -3.99000       11.54000        7.56500
C         -2.39400       10.55500        8.30100
H         -1.75600       11.00300        7.79400
C          0.57800       10.84900        9.55500
C          1.48600       11.32400        8.61800
H          1.70400       10.78900        7.88900
C          2.06200       12.53400        8.73400
H          2.67400       12.82800        8.09800
C          1.72600       13.36300        9.84900
H          2.14200       14.18900        9.94500
C          0.78900       12.96000       10.78900
H          0.52600       13.51500       11.48800
C          0.25300       11.66100       10.63200
H         -0.33800       11.33900       11.27200
S          0.92100        5.71200       13.70400
O         -2.44400        6.17000       12.22900
O          1.85800        4.86500       13.07000
O          1.48800        6.78200       14.49100
N         -0.17200        6.26300       12.63500
C         -1.46100        5.83400       12.90300
C         -1.49700        4.92700       14.09000
C         -2.58300        4.32100       14.63700
H         -3.42600        4.48000       14.27500
C         -2.46100        3.49100       15.70100
H         -3.20200        3.05800       16.05700
C         -1.19300        3.30300       16.24200
H         -1.09000        2.70500       16.94700
C         -0.08100        3.97600       15.76500
H          0.74800        3.90000       16.18000
C         -0.26700        4.79100       14.61000
