102
C:\Users\Javier\OneDrive - Universitat de Barcelona\Tesi\4 - Contribucions\Treballs\3-PhD\chapter_1\cif\pc2p\UFORIQ.pc2p.pdb
Ru         2.15300        2.92200       -5.13700
P          3.27900        4.19400       -6.70200
P          4.02900        3.27400       -3.83100
S         -3.62400        5.45900       -7.05400
S          0.13200       -3.38800        0.04500
N          1.06900        4.59800       -4.49900
O          3.51700        0.41200       -6.06800
O         -4.43800        6.56700       -6.64600
O         -2.27400        5.47500       -6.58800
O         -4.27200        4.17700       -6.99700
O          0.33800       -4.31900        1.11400
O          1.09900       -2.32200       -0.00700
O         -1.21200       -2.97500       -0.17100
N          0.48700        2.64000       -6.39800
N          1.18500        1.80600       -3.62400
F          1.75800       -4.76600       -1.46000
F          0.34700       -3.61800       -2.54000
F         -0.28100       -5.42300       -1.48700
F         -2.78300        6.85900       -9.12300
F         -4.62600        5.80400       -9.45700
F         -2.76800        4.74500       -9.42700
Cl        -5.26400       10.02500       -1.18500
Cl        -3.40400       11.14800       -3.07400
Cl        -3.61800        8.28600       -2.77900
Cl         0.75700       10.32200      -13.13100
Cl        -0.66200       10.53500      -10.61600
Cl        -0.53000        8.03200      -11.98800
Cl        -0.18700       11.68600      -11.72100
Cl        -1.43700        9.67500      -10.68000
Cl         0.78900        9.15800      -12.43100
C          2.37500        5.67800       -7.23900
C          2.44400        6.88400       -6.54300
H          3.00300        6.96000       -5.78100
C          1.69400        7.97300       -6.96500
H          1.74900        8.79600       -6.49600
C          0.86500        7.86400       -8.06700
H          0.36300        8.61500       -8.36100
C          0.77200        6.67500       -8.72900
H          0.18500        6.59800       -9.47200
C          1.52100        5.57600       -8.33100
H          1.45200        4.75600       -8.80600
C          3.72100        3.38500       -8.27000
C          4.73100        3.92500       -9.06500
H          5.20600        4.69100       -8.76500
C          5.04400        3.36000      -10.28000
H          5.74000        3.73000      -10.81000
C          4.34800        2.24800      -10.73300
H          4.57600        1.85100      -11.56400
C          3.32800        1.72100       -9.97600
H          2.83400        0.97700      -10.29800
C          3.01900        2.27400       -8.74300
H          2.32400        1.89600       -8.21600
C          4.85400        4.75200       -5.95000
H          5.51900        4.94000       -6.65900
H          4.70600        5.58300       -5.43100
C          5.37200        3.63800       -5.02200
H          6.18500        3.93800       -4.54400
H          5.59600        2.82700       -5.54800
C          4.01100        4.68700       -2.67700
C          2.86100        4.95500       -1.94400
H          2.08100        4.43300       -2.08300
C          2.84700        5.98400       -1.00400
H          2.06400        6.15700       -0.49500
C          3.98100        6.75300       -0.82000
H          3.97100        7.46600       -0.19200
C          5.12500        6.49100       -1.53900
H          5.90100        7.02100       -1.39900
C          5.15300        5.46700       -2.46000
H          5.94800        5.29100       -2.95000
C          4.49300        1.83100       -2.83000
C          5.30700        0.83100       -3.34500
H          5.70800        0.93700       -4.20100
C          5.53600       -0.32600       -2.61000
H          6.08900       -1.01200       -2.96400
C          4.97400       -0.47800       -1.38300
H          5.14700       -1.26400       -0.87900
C          4.14900        0.50200       -0.86500
H          3.74300        0.38000       -0.01500
C          3.91200        1.65900       -1.58000
H          3.35300        2.33700       -1.21900
C         -0.38700        2.44600       -7.09000
C         -1.49900        2.17100       -7.99300
H         -2.27100        2.71700       -7.73500
H         -1.73800        1.22100       -7.93600
H         -1.23500        2.38800       -8.91100
C          0.32600        5.41000       -4.24400
C         -0.63600        6.45400       -3.90600
H         -0.90800        6.35700       -2.97000
H         -1.42400        6.37400       -4.48300
H         -0.22400        7.33300       -4.03800
C          0.78900        1.05900       -2.86900
C          0.31400        0.05800       -1.91700
H         -0.26000       -0.58600       -2.38000
H         -0.19700        0.49900       -1.20700
H          1.08100       -0.40900       -1.52400
C          3.01300        1.37000       -5.72900
C         -3.43400        5.72100       -8.84800
C          0.50600       -4.34100       -1.43500
C         -3.70300        9.83900       -1.95300
H         -2.99700        9.86100       -1.24500
C         -0.61600        9.85400      -12.17900
H         -1.45400       10.09400      -12.66900
