122
C:\Users\Javier\OneDrive - Universitat de Barcelona\Tesi\4 - Contribucions\Treballs\3-PhD\chapter_1\cif\pc2p\UFOROW.pc2p.pdb
Ru        11.19600       20.22900       14.75900
S          8.07300       21.02000       14.28000
S         10.95000       23.39400       14.85300
S         10.88100       20.83600       11.46000
S          5.31700       21.45200       18.37400
S          8.55200       25.48400       12.48400
F          5.68400       24.00500       18.91700
F          6.83900       22.67800       20.12200
F          7.38000       23.02200       18.07000
F          6.88300       27.41400       13.11600
F          6.03100       25.89900       11.84300
F          6.35500       25.50100       13.92900
P         13.39900       19.73700       14.34700
P         11.65300       19.55900       16.89700
C         10.70600       18.50400       14.38900
C         14.29500       20.96000       13.35300
C         14.84000       22.08300       13.96400
H         14.76700       22.19600       14.90300
C         15.49300       23.04300       13.19800
H         15.86600       23.81100       13.61400
C         15.59900       22.87900       11.82100
H         16.04600       23.53300       11.29800
C         15.05500       21.75400       11.21000
H         15.12700       21.64100       10.27000
C         14.40100       20.79600       11.97600
H         14.02900       20.02800       11.55900
C         14.41900       20.93000       13.35900
C         14.63000       22.21600       13.84100
H         14.26100       22.47800       14.67600
C         15.38300       23.12200       13.10200
H         15.52800       24.00100       13.43200
C         15.92500       22.73900       11.88000
H         16.43800       23.35700       11.37300
C         15.71200       21.45300       11.39800
H         16.08200       21.19300       10.56300
C         14.95900       20.54900       12.13700
H         14.81500       19.67000       11.80700
C         13.78200       18.15200       13.53500
C         13.01900       17.73900       12.44800
H         12.26300       18.25200       12.18400
C         13.34400       16.59000       11.74300
H         12.81000       16.31900       11.00600
C         14.43700       15.84400       12.10900
H         14.66000       15.05900       11.62300
C         15.21600       16.23800       13.18900
H         15.97400       15.72300       13.44100
C         14.88600       17.39400       13.90600
H         15.41700       17.66200       14.64800
C         14.22700       19.69800       15.97600
H         15.12000       19.27900       15.89200
H         14.34500       20.61800       16.31900
C         13.35100       18.88300       16.94400
H         13.71500       18.94400       17.86300
H         13.34400       17.93200       16.67600
C         10.58600       18.29400       17.64200
C         11.08000       17.43600       18.62900
H         11.99300       17.47600       18.88600
C         10.21900       16.52100       19.23100
H         10.55600       15.92400       19.88900
C          8.88500       16.46900       18.88600
H          8.30700       15.84700       19.31100
C          8.39000       17.32500       17.91900
H          7.47300       17.29100       17.67900
C          9.24100       18.23800       17.29900
H          8.89900       18.82700       16.63700
C         11.60700       20.89700       18.13500
C         12.77500       21.40400       18.70400
H         13.62200       21.09000       18.40600
C         12.70400       22.36700       19.70800
H         13.50400       22.70900       20.08900
C         11.49200       22.82400       20.14700
H         11.45100       23.46400       20.84500
C         10.32300       22.34700       19.56800
H          9.48200       22.67800       19.86100
C         10.37900       21.38700       18.56100
H          9.57700       21.06800       18.16500
C          6.80700       19.86800       14.82800
H          6.64700       19.99000       15.78800
H          7.10600       18.95100       14.66000
H          5.97600       20.03600       14.33500
C          7.25700       22.53000       14.73600
H          7.88600       23.27800       14.66000
H          6.93900       22.46400       15.66100
H          6.49600       22.68200       14.13900
C         10.74000       24.34000       16.34000
H         11.60200       24.42300       16.79900
H         10.09900       23.88800       16.92700
H         10.40300       25.23300       16.11400
C         12.11300       24.44400       14.02300
H         12.39600       24.01900       13.18500
H         12.89400       24.58500       14.59900
H         11.69200       25.30600       13.82700
C          9.22000       20.91000       10.83700
H          8.81400       21.76500       11.09000
H          8.69500       20.17400       11.22000
H          9.23300       20.82900        9.86200
C         11.51400       22.28500       10.64300
H         12.46400       22.39500       10.86100
H         11.01800       23.07300       10.94700
H         11.41000       22.18600        9.67400
C          6.35100       22.84500       18.89800
C          6.88000       26.09800       12.86100
C          7.90100       16.03900       13.11000
C          7.61400       15.34200       14.36800
H          6.98800       15.87500       14.90100
H          8.44700       15.21700       14.86800
H          7.21600       14.46900       14.17200
C          8.79100       15.41500       12.14200
H          8.91400       16.01700       11.37800
H          8.39900       14.57300       11.83300
H          9.65900       15.23900       12.56000
O          9.19300       20.88900       15.31500
O         11.80600       22.19600       15.32100
O         10.76500       21.27200       12.92600
O          4.36800       21.34200       19.44200
O          4.80000       21.89700       17.11400
O          6.26700       20.38700       18.29200
O          8.95400       26.31600       11.39000
O          9.24300       25.72000       13.72800
O          8.32700       24.09800       12.16100
O         10.39600       17.41200       14.22000
O          7.42200       17.11100       12.87500
