165
C:\Users\Javier\OneDrive - Universitat de Barcelona\Tesi\4 - Contribucions\Treballs\3-PhD\chapter_1\cif\pc2p\UGOHEG.pc2p.pdb
Ru        13.43500       14.71300        3.47900
P         13.56800       12.63200        4.46500
P         12.03600       15.10300        5.26000
S         17.12200       15.07100        5.43300
C         12.70000       14.13100        6.67000
H         13.51800       14.56600        7.01800
H         12.03100       14.10400        7.39900
C         15.18000       11.80800        4.48400
C         14.76100       15.49500        4.49700
C         15.76200       16.16300        5.06300
C         12.52000       11.39300        3.65800
C         13.02700       12.70800        6.22200
H         12.22600       12.14000        6.33900
H         13.74500       12.34500        6.79800
C         16.25200       12.26600        3.72500
H         16.16200       13.06100        3.21300
C         12.20800        9.80500        1.85200
H         12.56600        9.31700        1.12000
C          9.75100       14.08300        3.95200
H         10.29700       13.99100        3.18000
C         10.36800       10.36000        3.27300
H          9.45500       10.25800        3.51300
C         11.17400       11.22100        4.00400
H         10.81100       11.69700        4.74300
C         10.28400       14.60800        5.13200
C         10.87700        9.64700        2.19700
H         10.31900        9.05900        1.70200
C         15.31600       10.60800        5.19400
H         14.58000       10.26500        5.68700
C         13.02000       10.66600        2.56600
H         13.93100       10.76600        2.31500
C         15.93900       15.02400        7.97300
H         15.70800       15.93700        7.85000
C          9.46400       14.72700        6.25100
H          9.81800       15.08200        7.05800
C         16.65200       14.32700        6.97900
C         17.02700       13.01000        7.18600
H         17.53400       12.55000        6.52800
C         16.52200        9.91900        5.17900
H         16.61900        9.11300        5.67400
C          8.40800       13.69400        3.91400
H          8.04100       13.34700        3.10800
C         17.45200       11.57200        3.71400
H         18.18200       11.89600        3.20100
C         13.85600       14.02000        1.36900
H         14.33300       13.21700        1.19400
C         16.66900       12.37300        8.33400
H         16.91000       11.46300        8.46300
C         17.58200       10.41400        4.44000
H         18.41000        9.94700        4.43500
C          8.14400       14.33400        6.20200
H          7.59400       14.42400        6.97200
C         12.43800       14.14000        1.50200
H         11.80500       13.43600        1.43300
C         15.58200       14.36300        9.11900
H         15.07500       14.81700        9.78200
C         15.94800       13.04600        9.32400
H         15.71300       12.60200       10.13000
C          7.61400       13.80900        5.03200
H          6.70600       13.52900        5.00200
C         14.42000       15.29800        1.54000
H         15.34500       15.50900        1.49700
C         13.36100       16.22200        1.78700
H         13.45400       17.15400        1.94300
C         12.27900       17.19700        7.14300
H         12.67400       16.56500        7.73200
C         15.87100       17.60700        5.26300
C         11.88800       16.79900        5.86600
C         12.09500       18.50900        7.56400
H         12.34400       18.76100        8.44500
C         12.15100       15.49900        1.75800
H         11.28400       15.86500        1.88800
C         11.54700       19.45400        6.70000
H         11.43500       20.35300        6.98500
C         11.32300       17.76400        5.00300
H         11.04600       17.51300        4.13000
C         11.16800       19.07800        5.43000
H         10.79800       19.72400        4.84000
C         17.00500       18.17700        5.82600
H         17.70800       17.61700        6.13500
C         14.84600       18.46200        4.83300
H         14.05400       18.09900        4.45500
C         14.98400       19.83000        4.95600
H         14.28200       20.39900        4.66300
C         17.12500       19.55400        5.94400
H         17.90700       19.92400        6.33700
C         16.13100       20.38800        5.50100
H         16.22600       21.33100        5.56700
F          0.98900        8.88800       -7.07700
F         -0.32200        8.18900       -5.52900
F          1.20300        6.90100       -6.30700
F          5.30100        5.95300       -0.30700
F          6.35200        4.58100       -1.51500
F          4.42700        4.59400       -6.98600
F          9.61600        7.25100       -9.30600
F          6.15600        3.92900       -8.04200
F          2.86100       10.40100       -0.60700
C          6.33000        8.14100       -5.91500
C          6.27600        7.44200       -2.54400
H          5.36900        7.17100       -2.63000
C          7.45800        8.47800       -6.67000
H          7.93700        9.26400       -6.43600
C          1.92100        8.67200       -4.92300
F          7.26000        5.36400        0.25400
F          8.93100        9.26700       -9.17700
C          5.69800        6.95200       -6.30500
H          4.95500        6.64600       -5.79700
F         10.15600        8.46000       -7.65400
C          7.23500        6.58300       -8.14200
H          7.52500        6.07800       -8.89200
C          3.77900        9.50000       -3.07600
H          4.40300        9.78200       -2.41800
C          3.27500        8.63400       -5.22100
H          3.54400        8.34300       -6.08500
C          2.42900        9.59200       -2.78600
C          4.26600        9.01400       -4.29500
C          6.76500        8.46100       -3.38000
F          4.75400        5.18000       -9.00600
C          6.01500       11.22200       -6.17600
H          5.84100       10.65500       -6.91900
C          7.91800        7.72700       -7.74700
C          8.91400        8.18800       -2.25200
C          7.08200        6.81800       -1.59800
C          6.12500       12.59700       -6.38200
C          6.11000        6.19200       -7.41100
C          6.32800       13.45800       -5.33600
H          6.39200       14.39500       -5.47700
C         10.35000        8.60300       -2.09400
C          0.94100        8.16500       -5.94200
C          6.15400       10.65000       -4.89800
C          8.10900        8.81000       -3.20000
H          8.48200        9.49400       -3.74400
C          6.38100       11.54700       -3.86100
H          6.50100       11.20500       -2.98300
F          6.96500       13.24800       -1.79200
C          6.51400        5.68700       -0.79900
C          8.40700        7.17400       -1.44600
H          8.95800        6.73800       -0.80600
C          1.47800        9.14100       -3.70100
H          0.55100        9.15700       -3.49100
C          6.44100       12.91100       -4.05000
C          6.05400       13.12100       -7.76200
F         10.94600        8.07400       -1.04800
F          7.42900       14.84400       -3.13100
C          5.36500        4.98800       -7.85100
C          9.13000        8.18100       -8.46100
C          1.96700       10.21800       -1.52000
B          5.87000        9.04800       -4.63100
F         11.04800        8.39300       -3.14400
F          0.99000        9.59200       -0.97500
C          6.59600       13.84200       -2.89300
F          1.43300       11.40400       -1.70000
F          5.39400       14.18200       -7.89800
F         10.45100        9.95500       -1.85800
F          5.42200       14.45300       -2.60100
F          5.37200       12.37100       -8.61400
F          7.15200       13.22100       -8.33900
F         11.19100        7.47100       -2.26600
F         10.82400        9.38800       -3.02600
F         10.64200        9.01900       -0.95500
Cl         9.12900       14.04200        0.32700
Cl        10.50500       12.94800       -1.94300
C          9.56800       12.57800       -0.52300
H         10.09400       11.99200        0.07700
H          8.74700       12.09000       -0.78700
