110
C:\Users\Javier\OneDrive - Universitat de Barcelona\Tesi\4 - Contribucions\Treballs\3-PhD\chapter_1\cif\pc2p\UHUDOT.pc2p.pdb
Ru        12.73100        8.70300        2.63900
Fe        16.03300        3.26500       10.97000
P         12.64500       10.52700        3.98800
P         10.65900        8.33400        3.45500
C         13.26700        7.67500        4.26800
C         10.11200        6.60100        3.67200
C         13.09000        9.32600        0.49500
C         12.57400       12.19000        3.21500
C         12.51800        8.03000        0.50400
C         14.28500        4.60000        8.66100
C         14.55100        7.90800        1.57800
C         14.01700       10.76900        5.18800
C          9.16100        9.06700        2.66900
C         14.36800        3.78400        9.88800
C         11.11200       10.49800        5.04000
H         11.31700       10.83600        5.92500
H         10.43500       11.06900        4.64500
C         14.38100        6.74100        7.54800
H         14.57400        7.65000        7.59200
C         14.51500        2.36300        9.96500
H         14.60800        1.78800        9.24000
C         14.35200        9.25900        1.16900
C         13.40000        7.15400        1.19800
C         13.70700       12.99200        3.11800
H         14.49700       12.71900        3.52600
C         14.54400        5.96300        8.67600
H         14.83300        6.36100        9.46500
C         10.51900        5.85500        4.76700
H         11.05500        6.24400        5.41900
C          9.34700        5.96800        2.69500
H          9.07800        6.44300        1.94200
C         12.60500       10.52100       -0.27800
H         11.66900       10.42300       -0.46700
H         13.09300       10.58700       -1.10300
H         12.74600       11.31600        0.24100
C         13.64000        7.00600        5.20600
C         15.78200        7.33100        2.21500
H         16.36300        8.04300        2.49100
H         16.23800        6.77300        1.58100
H         15.53000        6.80800        2.97900
C         15.20700       10.08800        5.00500
H         15.29100        9.48300        4.30500
C          7.88400        8.83000        3.19900
H          7.78100        8.28700        3.94700
C         14.27700        4.25800       11.22700
H         14.18500        5.14800       11.48100
C         10.58500        9.07000        5.14400
H          9.67100        9.07300        5.46900
H         11.12900        8.55500        5.75900
C         14.35300        3.15000       12.11300
H         14.31300        3.18400       13.04100
C         13.94000        6.20000        6.35200
C         11.30400        7.59500       -0.25700
H         10.92100        6.82400        0.16700
H         11.55400        7.37400       -1.15800
H         10.66200        8.30800       -0.26900
C         14.49800        1.98000       11.31900
H         14.57000        1.10900       11.63900
C         10.12900        4.52800        4.89200
H         10.39400        4.04000        5.63900
C          9.26900        9.85900        1.55300
H         10.10900       10.02600        1.19400
C         11.40300       12.64000        2.61100
H         10.62700       12.13000        2.67300
C         13.88600        4.03400        7.45200
H         13.73200        3.11800        7.40400
C          9.35800        3.92800        3.92800
H          9.09300        3.04200        4.02200
C          6.77500        9.40900        2.59900
H          5.93300        9.27000        2.96600
C         13.89800       11.63800        6.25900
H         13.10400       12.10200        6.39300
C          8.98400        4.64500        2.83100
H          8.47900        4.23600        2.16600
C         13.71600        4.81200        6.32200
H         13.44800        4.41000        5.52800
C         15.34700       10.37000        1.27400
H         14.88600       11.21200        1.29400
H         15.93500       10.34600        0.51500
H         15.86000       10.26700        2.07800
C         17.65200        3.30400       12.20600
H         17.64100        3.22500       13.13300
C         13.22200        5.67900        1.39200
H         13.56400        5.42700        2.25300
H         13.69900        5.20600        0.70700
H         12.28900        5.46000        1.34200
C          8.14600       10.41700        0.94800
H          8.23900       10.94700        0.18900
C         17.56500        4.48700       11.49200
H         17.48500        5.34100       11.85300
C         17.61700        4.16700       10.11000
H         17.57000        4.77000        9.40400
C          6.90100       10.18400        1.47400
H          6.14700       10.54800        1.07100
C         17.76200        2.25100       11.29600
H         17.82900        1.35000       11.51100
C         13.67700       14.18600        2.42300
H         14.44100       14.71200        2.36800
C         11.38100       13.83300        1.92300
H         10.58900       14.12400        1.53000
C         17.75400        2.78500       10.00500
H         17.82700        2.30200        9.21400
C         12.51700       14.59500        1.81500
H         12.50000       15.38900        1.32900
C         16.27500       10.30300        5.86400
H         17.07900        9.86300        5.71200
C         16.16700       11.14600        6.92200
H         16.88400       11.27500        7.50000
C         14.95500       11.81900        7.12700
H         14.86200       12.39200        7.85400
