95
C:\Users\Javier\OneDrive - Universitat de Barcelona\Tesi\4 - Contribucions\Treballs\3-PhD\chapter_1\cif\pc2p\UMECUK.pc2p.pdb
Pd         7.64800       12.33400       18.95400
P          7.37800       11.43000       21.09700
P          6.69300       14.15200       19.81600
C          7.22700       14.12000       16.44000
H          7.35200       14.24400       15.51700
H          6.72100       14.73900       16.93300
C          7.76200       13.07200       17.04400
N          8.53600       12.13600       16.25700
C          8.92200       10.98100       16.84900
O          8.59700       10.73900       18.05300
N          9.62800       10.09400       16.12900
H          9.95800       10.32100       15.32300
C          8.68400       12.35900       14.83600
C          9.72800       13.19400       14.41500
C          9.77400       13.50000       13.05000
H         10.46100       14.05300       12.72900
C          8.85100       13.01800       12.18400
H          8.90100       13.25000       11.27300
C          7.85100       12.20300       12.61300
H          7.22800       11.87500       11.99100
C          7.72500       11.83700       13.96400
C         10.73400       13.75400       15.36600
H         11.30000       14.39100       14.90200
H         11.28000       13.03400       15.72100
H         10.27700       14.20000       16.09600
C          6.62400       10.96500       14.45300
H          6.17900       11.39500       15.19900
H          6.98900       10.11400       14.73900
H          5.98500       10.81900       13.73700
C         11.03600        8.12700       16.40000
H         11.77900        8.63400       16.12500
C         11.18300        6.77300       16.68000
H         12.02500        6.36500       16.59300
C         10.08400        6.02500       17.08400
H         10.18300        5.10900       17.27300
C          8.83900        6.63000       17.21200
H          8.09700        6.12300       17.48600
C          8.69300        7.98400       16.93300
H          7.85100        8.39200       17.01800
C          9.79200        8.73200       16.52700
C          5.97000       12.34700       21.81600
H          5.13400       12.08200       21.38100
H          5.89700       12.15900       22.77500
C          6.24000       13.84000       21.58700
H          6.97200       14.13400       22.16900
H          5.44100       14.35700       21.81600
C          6.07600        9.21000       22.23100
H          5.62900        9.82400       22.78300
C          5.81000        7.85000       22.34400
H          5.18200        7.54500       22.97500
C          6.47100        6.94100       21.52700
H          6.29100        6.02200       21.60400
C          7.40000        7.39200       20.59600
H          7.84800        6.77700       20.04300
C          7.66600        8.75100       20.48200
H          8.29400        9.05700       19.85300
C          7.00500        9.66000       21.30000
C          8.61500       11.59500       23.59700
H          7.79400       11.30100       23.94800
C          9.68300       11.85000       24.45000
H          9.58400       11.72800       25.37700
C         10.89700       12.28600       23.93300
H         11.62000       12.45800       24.50900
C         11.04400       12.46700       22.56200
H         11.86500       12.76100       22.21200
C          9.97600       12.21300       21.71000
H         10.07500       12.33600       20.78300
C          8.76200       11.77700       22.22700
C          8.76200       15.83700       18.98300
H          8.99000       15.14500       18.38700
C          9.49100       17.01900       18.98400
H         10.21200       17.12900       18.38900
C          9.15600       18.04300       19.86300
H          9.65000       18.84200       19.86500
C          8.09100       17.88100       20.74300
H          7.86400       18.57200       21.33800
C          7.36200       16.69900       20.74100
H          6.64200       16.58900       21.33600
C          7.69700       15.67600       19.86100
C          4.65000       15.85600       18.95100
H          5.15500       16.54800       19.33700
C          3.43700       16.14100       18.33300
H          3.12100       17.02700       18.30200
C          2.69100       15.11700       17.76200
H          1.87100       15.30900       17.34600
C          3.15600       13.80800       17.80900
H          2.65200       13.11500       17.42200
C          4.36900       13.52400       18.42600
H          4.68400       12.63900       18.45700
C          5.11600       14.54700       18.99700
B         13.03900       10.58600       14.16600
F         11.66000       10.54400       14.06100
F         13.54800        9.31800       14.29600
F         13.56400       11.18500       13.03000
F         13.35500       11.34000       15.26900
