79
C:\Users\Javier\OneDrive - Universitat de Barcelona\Tesi\4 - Contribucions\Treballs\3-PhD\chapter_1\cif\pc2p\USUHOG.pc2p.pdb
Ru         2.27000       19.52800        4.52300
Cl         3.77800       21.38300        4.33400
C          0.60100       21.07600        4.14200
C          0.60700       20.11200        3.10700
H          0.65500       20.40000        2.20300
C          0.54100       18.72500        3.39700
H          0.57700       18.09400        2.68800
C          0.42300       18.27600        4.71400
H          0.33000       17.34800        4.90300
C          0.44500       19.23400        5.78000
H          0.39300       18.94900        6.68500
C          0.54700       20.60900        5.47100
H          0.58000       21.23800        6.18300
C          0.69000       22.54500        3.88500
H         -0.21200       22.92200        3.83100
H          1.16000       22.70000        3.03900
H          1.18200       22.97400        4.61500
P          3.65600       18.86100        6.27900
C          4.10800       20.33700        7.25700
C          5.31200       20.99500        7.21600
F          6.35400       20.48100        6.52100
C          5.54500       22.20800        7.84800
F          6.76500       22.77400        7.79600
C          4.51600       22.80500        8.53700
F          4.71300       23.98600        9.13000
C          3.29800       22.20800        8.56800
F          2.26700       22.78700        9.22300
C          3.11000       21.01100        7.97100
F          1.89700       20.39500        8.10400
C          3.17100       17.64900        7.56400
C          3.38400       17.78800        8.94300
F          3.94900       18.87100        9.47600
C          3.07000       16.78400        9.82500
F          3.29200       16.98200       11.13500
C          2.54100       15.62100        9.37100
F          2.24800       14.61800       10.24800
C          2.31700       15.41200        8.04100
F          1.79000       14.26000        7.58100
C          2.62700       16.43600        7.16000
F          2.42500       16.19700        5.84300
C          5.15200       18.04600        5.60000
H          5.92100       18.21700        6.19900
H          5.00600       17.07000        5.55900
P          3.95300       18.58200        3.18900
C          3.96100       16.89900        2.43900
C          2.94300       15.94700        2.46800
F          1.85100       16.17800        3.24300
C          2.96900       14.77900        1.76500
F          1.93300       13.92300        1.86000
C          4.04500       14.49600        0.93500
F          4.02800       13.36900        0.21400
C          5.08800       15.37200        0.88600
F          6.13900       15.10000        0.09700
C          5.06200       16.52800        1.62200
F          6.10500       17.36200        1.51700
C          4.24000       19.55300        1.65700
C          3.25900       19.52400        0.66400
F          2.16900       18.77000        0.86100
C          3.31600       20.21600       -0.51200
F          2.32400       20.21100       -1.40200
C          4.47400       20.96100       -0.76500
F          4.60400       21.64600       -1.92500
C          5.47200       21.01500        0.14700
F          6.58100       21.76500       -0.08300
C          5.35100       20.34200        1.36700
F          6.38000       20.43800        2.22100
C          5.47000       18.57000        4.20600
H          6.15300       17.99300        3.78100
H          5.83600       19.48800        4.27100
B          4.21400        5.41200        2.14300
F          4.42500        6.76200        1.95600
F          5.43300        4.79000        2.33700
F          3.47900        5.25700        3.33500
F          3.51600        4.84400        1.11000
C          4.75200        2.66300        4.97800
H          4.55100        3.22000        4.18500
H          4.52000        1.72700        4.75600
Cl         3.77600        3.18200        6.28400
Cl         6.46000        2.75900        5.31700
