154
C:\Users\Javier\OneDrive - Universitat de Barcelona\Tesi\4 - Contribucions\Treballs\3-PhD\chapter_1\cif\pc2p\UVADOM.pc2p.pdb
Pd         6.49400        2.20700       14.00800
P          5.74300        2.56700       11.91500
P          8.58400        1.70700       13.05200
N          6.17200        2.17700       16.08500
B          6.84400        1.97200       17.52500
C          5.14800        2.39000       15.46600
C          3.71100        2.74200       15.65200
H          3.52500        2.85100       16.60600
H          3.15200        2.02400       15.28700
H          3.51600        3.57900       15.18100
C          7.51500        0.47300       17.44500
H          8.21400        0.48900       16.74400
H          7.96500        0.29500       18.30600
C          6.60000       -0.67600       17.15500
H          7.07300       -1.51700       17.32600
H          6.31900       -0.64100       16.21800
H          5.81100       -0.61900       17.73600
C          7.98500        3.10600       17.77400
H          8.43200        2.91100       18.63600
H          8.66800        3.02400       17.06300
C          7.51200        4.51800       17.80600
H          8.28300        5.11900       17.82100
H          6.97000        4.66000       18.60800
H          6.97300        4.69500       17.00800
C          5.60700        2.10900       18.58300
H          5.14800        2.97200       18.42400
H          4.95300        1.38600       18.40100
C          6.01200        2.03800       20.04600
H          5.20900        2.02000       20.60800
H          6.55400        2.82100       20.27400
H          6.53400        1.22200       20.20000
C          7.16800        2.57300       10.73000
H          6.85800        2.27400        9.83900
H          7.51800        3.49400       10.64200
C          8.27500        1.65500       11.21600
H          9.11200        1.89700       10.74700
H          8.04500        0.72600       10.96000
C          4.54000        1.45600       11.08500
H          4.40300        1.76200       10.14300
C          5.09100        0.04100       11.07900
H          4.48000       -0.54500       10.58500
H          5.17700       -0.28100       12.00100
H          5.97200        0.03400       10.64800
C          3.19800        1.48800       11.82600
H          2.55000        0.92300       11.35300
H          2.86500        2.40700       11.86400
H          3.32100        1.14600       12.73800
C          4.97900        4.24400       11.77800
H          4.11900        4.19600       12.28600
C          5.82800        5.30700       12.48700
H          5.31800        6.13900       12.56100
H          6.64600        5.47100       11.96800
H          6.06900        4.99000       13.38200
C          4.60600        4.69600       10.37100
H          4.09000        5.52700       10.42200
H          4.06700        4.00200        9.93900
H          5.42100        4.84900        9.85200
C          9.26400        0.02200       13.36800
H          9.62600        0.03700       14.30100
C          8.15700       -1.04500       13.35300
H          8.55900       -1.93400       13.44400
H          7.66400       -0.99300       12.50600
H          7.54000       -0.88700       14.09800
C         10.41400       -0.42400       12.47200
H         10.93100       -1.12200       12.92600
H         10.99700        0.34200       12.28200
H         10.05600       -0.77800       11.63200
C         10.05900        2.78400       13.21100
H         10.72400        2.53300       12.50800
C          9.63100        4.25300       13.00000
H         10.42900        4.82300       12.96600
H          9.06100        4.53700       13.74300
H          9.13800        4.33300       12.16000
C         10.71600        2.66000       14.58800
H         11.57900        3.12400       14.58200
H         10.85300        1.71400       14.79900
H         10.13300        3.06400       15.26600
Pd         0.64800        6.67000       16.62800
P          1.48000        6.91100       18.71600
P         -1.35500        5.96700       17.56500
N          1.04400        6.81100       14.57500
B          0.39900        6.66700       13.12900
C          2.05100        6.97100       15.25300
C          3.47100        7.36800       14.96000
H          3.88600        6.68200       14.39400
H          3.96700        7.44400       15.80000
H          3.48200        8.22700       14.49100
C         -0.75400        7.79600       13.07400
H         -1.26800        7.67900       12.23600
H         -1.37700        7.64500       13.83000
C         -0.26700        9.19700       13.13700
H         -1.02700        9.80000       13.27900
H          0.17800        9.42600       12.29500
H          0.36700        9.29000       13.87800
C         -0.25500        5.15800       13.05300
H         -0.88900        5.05300       13.80700
H         -0.77700        5.08600       12.21500
C          0.72600        4.02200       13.09700
H          0.27200        3.21400       13.41800
H          1.46000        4.25000       13.70500
H          1.08100        3.86300       12.20000
C          1.62300        6.88800       12.05800
H          2.10500        7.72400       12.28200
H          2.26600        6.13800       12.13900
C          1.12700        6.97100       10.63100
H          1.85600        7.27000       10.04800
H          0.38400        7.60400       10.58000
H          0.82300        6.08400       10.34200
C          0.00900        6.80700       19.84800
H          0.31600        6.53700       20.74900
H         -0.39900        7.70700       19.92800
C         -1.03300        5.85400       19.39400
H         -1.87300        6.03600       19.88300
H         -0.74600        4.93200       19.61500
C          2.70800        5.76400       19.44200
H          2.88300        6.04400       20.38600
C          2.18600        4.32700       19.45300
H          2.92000        3.71600       19.67700
H          1.83000        4.10300       18.56800
H          1.47400        4.24200       20.12400
C          4.01800        5.87100       18.65500
H          4.69500        5.29100       19.06200
H          4.33400        6.80300       18.67600
H          3.86600        5.60100       17.72800
C          2.22600        8.57100       18.99900
H          3.08900        8.59300       18.49400
C          1.33400        9.66800       18.40800
H          1.68100       10.54700       18.66700
H          0.41900        9.56300       18.74300
H          1.33100        9.59600       17.43000
C          2.55300        8.91600       20.44700
H          2.88000        9.83800       20.50000
H          3.24400        8.30500       20.78100
H          1.74700        8.82400       20.99600
C         -1.93900        4.31600       17.02200
H         -2.29700        4.42100       16.09300
C         -0.74300        3.36800       16.94000
H         -0.94400        2.64200       16.31100
H         -0.56200        2.99200       17.82700
H          0.04300        3.86200       16.62800
C         -3.05700        3.72500       17.87100
H         -3.13200        2.76500       17.69000
H         -3.90400        4.16700       17.65000
H         -2.85400        3.86400       18.81900
C         -2.87400        6.99900       17.49500
H         -3.49600        6.67600       18.20900
C         -2.50700        8.45500       17.82100
H         -3.32100        9.00300       17.82700
H         -1.89000        8.79500       17.14100
H         -2.07900        8.49500       18.70100
C         -3.59400        6.85400       16.15000
H         -4.31400        7.51700       16.09100
H         -3.97500        5.95300       16.07900
H         -2.95400        6.99700       15.42200
