231
C:\Users\Javier\OneDrive - Universitat de Barcelona\Tesi\4 - Contribucions\Treballs\3-PhD\chapter_1\cif\pc2p\UVADUS.pc2p.pdb
Pd         0.78000        5.64600        1.77500
P          2.90300        6.40000        1.58700
P          1.44500        3.72300        0.61900
N         -1.22300        6.01200        2.30800
B         -2.71000        5.64500        1.92800
C         -0.47500        6.87400        2.76400
C         -0.60500        8.12800        3.54800
H         -1.53300        8.23800        3.83900
H         -0.34600        8.89200        2.99000
H         -0.02000        8.08500        4.33400
C         -3.67700        6.33700        3.04900
C         -4.09600        7.68100        2.92600
H         -3.84500        8.16900        2.15200
C         -4.86900        8.31400        3.89800
H         -5.13300        9.21800        3.78400
C         -5.24200        7.61500        5.03400
H         -5.76700        8.03700        5.70500
C         -4.84700        6.30200        5.18100
H         -5.10100        5.81700        5.95900
C         -4.08700        5.68300        4.20300
H         -3.83500        4.77500        4.32500
C         -2.80300        4.00900        1.92900
C         -2.15600        3.23200        2.88800
H         -1.65100        3.67000        3.56300
C         -2.21700        1.84700        2.90200
H         -1.76300        1.36100        3.57700
C         -2.93900        1.17400        1.93800
H         -2.98800        0.22600        1.94600
C         -3.58300        1.90100        0.96600
H         -4.06300        1.45000        0.28100
C         -3.53700        3.29100        0.97500
H         -4.01900        3.77000        0.31100
C         -2.94500        6.24000        0.42700
C         -1.91100        6.60900       -0.44700
H         -1.01500        6.56800       -0.13700
C         -2.14900        7.02700       -1.73500
H         -1.41700        7.27300       -2.28800
C         -3.44800        7.09400       -2.24000
H         -3.60700        7.36600       -3.13700
C         -4.49600        6.75300       -1.40600
H         -5.38900        6.79500       -1.72500
C         -4.24400        6.35200       -0.10800
H         -4.98300        6.13900        0.45000
C          3.81100        5.26300        0.45200
H          3.73000        5.60300       -0.47600
H          4.77100        5.26700        0.69200
C          3.28500        3.81100        0.50400
H          3.67900        3.35300        1.28800
H          3.58100        3.33100       -0.30900
C          3.96700        6.54000        3.09800
H          4.86400        6.88700        2.82800
C          4.14400        5.18300        3.75700
H          4.71200        5.27800        4.55000
H          4.56600        4.56600        3.12400
H          3.26900        4.83300        4.02400
C          3.33600        7.52400        4.06800
H          3.87800        7.57400        4.88200
H          2.43100        7.22400        4.29600
H          3.28800        8.40900        3.64900
C          3.04600        8.05300        0.75900
H          2.76300        8.73400        1.43500
C          2.06700        8.17100       -0.40600
H          2.07400        9.09000       -0.74600
H          1.16400        7.94400       -0.09800
H          2.33300        7.55600       -1.12100
C          4.44500        8.42300        0.34000
H          4.44100        9.32300       -0.04700
H          4.76600        7.78100       -0.32600
H          5.03400        8.40600        1.12300
C          1.13200        2.14000        1.54000
H          0.14200        1.99200        1.52200
C          1.51300        2.27000        2.98700
H          1.24800        1.45700        3.46800
H          1.05400        3.04400        3.37600
H          2.48300        2.39100        3.06000
C          1.76400        0.90400        0.88900
H          1.53100        0.10400        1.40600
H          2.73900        1.00600        0.86900
H          1.42800        0.80900       -0.02800
C          0.91100        3.36800       -1.11400
H          1.39500        2.55300       -1.43400
C          1.26700        4.52500       -2.02900
H          0.99700        4.31100       -2.94700
H          2.23600        4.67800       -2.00000
H          0.80100        5.33400       -1.73100
C         -0.60300        3.08500       -1.16400
H         -0.88000        2.95400       -2.09500
H         -1.09000        3.84300       -0.77900
H         -0.80000        2.27400       -0.64800
Pd        11.13600        4.99100        9.49200
C          9.73000        6.32200        9.14800
C          9.34600        7.76100        9.09100
H          8.43600        7.84300        8.73900
H          9.96800        8.24200        8.50300
H          9.38500        8.14700        9.99100
P         13.12000        5.98300        9.89100
C         14.27700        4.82700       10.73600
H         15.20300        5.05300       10.47100
H         14.20300        4.96100       11.71400
C         14.03100        3.43100       10.43800
H         14.29000        2.89400       11.22700
H         14.62100        3.16500        9.68800
P         12.25100        2.99100        9.97600
C         14.02500        6.74100        8.49700
H         14.89500        7.10700        8.82700
C         14.28900        5.69200        7.44300
H         13.43900        5.30600        7.14300
H         14.85400        4.98400        7.81900
H         14.74700        6.10200        6.68000
C         13.14700        7.88800        8.03200
H         13.46800        8.21400        7.16600
H         13.18500        8.61400        8.68800
H         12.22300        7.57400        7.94200
C         13.28100        7.53300       10.86300
H         12.99100        8.27200       10.25600
C         12.25400        7.47200       11.96300
H         12.55900        6.85700       12.66200
H         11.40300        7.15500       11.59600
H         12.13200        8.36700       12.34600
C         14.68100        7.90100       11.33500
H         14.63200        8.68200       11.92400
H         15.24200        8.11100       10.55900
H         15.07000        7.14600       11.82400
C         12.40800        1.65900        8.73700
H         11.50400        1.23600        8.67700
C         12.70100        2.19700        7.35500
H         13.51100        2.74700        7.38400
H         11.94600        2.74400        7.05000
H         12.83500        1.45000        6.73400
C         13.36600        0.53900        9.10200
H         13.33000       -0.15800        8.41500
H         13.10900        0.15800        9.96800
H         14.27700        0.89500        9.16100
C         11.71500        2.16000       11.52400
H         12.46700        1.58200       11.83700
C         11.43400        3.18500       12.61400
H         10.68100        3.75200       12.34400
H         12.23000        3.74300       12.75000
H         11.21300        2.72100       13.44900
C         10.52000        1.25600       11.24500
H         10.16700        0.91000       12.09200
H         10.80100        0.50900       10.67800
H          9.82300        1.76900       10.78600
N          9.12500        5.23000        8.95000
B          7.69300        4.53300        8.72600
C          6.63600        5.79100        8.66500
C          6.36400        6.47700        7.47600
H          6.70500        6.13700        6.65700
C          5.59900        7.64900        7.45800
H          5.44700        8.10000        6.63600
C          5.07500        8.15200        8.60800
H          4.56500        8.95200        8.59000
C          5.28800        7.49400        9.79600
H          4.91900        7.83500       10.60300
C          6.05400        6.31500        9.81400
H          6.17700        5.86000       10.63900
C          7.77800        3.70900        7.32300
C          8.96700        3.27500        6.75600
H          9.78700        3.51300        7.17000
C          8.99900        2.50300        5.59700
H          9.83300        2.21800        5.24300
C          7.83700        2.15300        4.96400
H          7.86300        1.62900        4.17200
C          6.62500        2.56600        5.48200
H          5.81100        2.33500        5.04900
C          6.61300        3.32900        6.64600
H          5.77400        3.60500        6.99800
C          7.46300        3.56200        9.99900
C          7.81000        3.97000       11.30400
H          8.20000        4.82700       11.42500
C          7.60800        3.17400       12.41000
H          7.84700        3.49100       13.27200
C          7.05000        1.90100       12.26300
H          6.88400        1.35300       13.02000
C          6.74300        1.45600       10.98300
H          6.39700        0.58000       10.85800
C          6.93500        2.27900        9.88500
H          6.70100        1.95700        9.02200
C          9.68100        6.23400        8.80000
C          9.43100        7.66800        8.33700
H         10.26500        8.17800        8.39100
H          9.11100        7.66000        7.41000
H          8.75500        8.08300        8.91300
P         13.19200        5.85200        9.93700
C         14.17800        4.42500       10.55600
H         15.11500        4.54400       10.26300
H         14.17200        4.44700       11.54600
C         13.73600        3.12900       10.13500
H         14.19900        2.43200       10.66400
H         13.96500        2.99500        9.18100
P         11.83100        2.96300       10.36900
C         13.99500        6.33500        8.35600
H         14.95100        6.52700        8.58000
C         14.02000        5.17200        7.38100
H         14.34100        4.36700        7.83900
H         13.11300        5.01500        7.04000
H         14.61800        5.38500        6.63500
C         13.49100        7.54100        7.58400
H         13.45900        8.32000        8.17800
H         14.09600        7.72500        6.83400
H         12.59400        7.35500        7.24000
C         13.15800        7.01500       11.36900
H         12.69600        7.82400       11.00700
C         12.35400        6.66100       12.60300
H         11.46700        6.33500       12.33500
H         12.81900        5.96200       13.10900
H         12.24900        7.45700       13.16600
C         14.53900        7.52600       11.75000
H         15.03900        7.74800       10.93200
H         14.45100        8.32700       12.30200
H         15.02000        6.83300       12.24500
C         11.85000        1.36600        9.45300
H         12.42500        0.70800        9.94200
C         12.33000        1.48400        8.01400
H         13.24500        1.83400        8.00100
H         12.31300        0.60000        7.59000
H         11.73900        2.09300        7.52200
C         10.43900        0.82000        9.34500
H         10.05800        0.71400       10.24000
H          9.88700        1.44300        8.82600
H         10.46100       -0.05000        8.89300
C         11.05100        2.55300       11.98600
H         10.07000        2.41900       11.83900
C         11.23800        3.83200       12.78100
H         10.86500        4.58700       12.28500
H         10.79800        3.75000       13.64700
H         12.20400        3.98500       12.92000
C         11.60700        1.32000       12.66500
H         11.44800        0.53500       12.10100
H         12.57100        1.43000       12.80400
H         11.16400        1.19500       13.53100
