79
C:\Users\Javier\OneDrive - Universitat de Barcelona\Tesi\4 - Contribucions\Treballs\3-PhD\chapter_1\cif\pc2p\UYUXES.pc2p.pdb
P          5.27700       11.70500        8.40000
P          5.22000       12.36700        5.43600
O          2.40600       14.02800        5.21600
O          0.38300       12.83900        6.90400
O          0.19000       10.00800        7.69400
O          1.99000        8.34900        9.44200
O          4.87700        8.81900        9.70300
C          4.30700       10.59700        7.31200
H          3.75000       10.22500        7.76400
H          4.84900        9.89400        7.00400
C          3.84800       11.37100        6.09300
H          3.45300       10.76200        5.41500
H          3.16700       11.96100        6.33500
C          4.56500       13.64300        4.31100
H          4.03600       13.22900        3.60200
H          5.27800       14.04200        3.96000
C          3.65200       14.65800        4.99900
H          3.57400       15.39200        4.43500
H          4.05800       14.91000        5.81800
C          1.54300       14.76000        6.08400
H          2.06700       14.81300        6.91400
H          1.38600       15.70900        5.75100
C          0.25600       14.03200        6.15100
H         -0.09900       13.80700        5.19100
H         -0.31900       14.51000        6.41100
C         -0.74800       11.99700        6.70700
H         -0.67100       11.54600        5.82900
H         -1.56900       12.55100        6.69300
C         -0.86700       10.96900        7.78200
H         -1.70400       10.41800        7.72000
H         -0.89100       11.35500        8.59200
C         -0.12100        8.84900        8.45300
H         -0.35200        9.12200        9.37500
H         -0.93500        8.36400        7.98800
C          1.02200        7.90700        8.49400
H          1.56100        7.86800        7.65200
H          0.71500        7.04100        8.70400
C          2.99400        7.36300        9.65100
H          2.58400        6.62800       10.06900
H          3.36500        7.02800        8.80500
C          4.08600        7.94300       10.50300
H          4.49800        7.29000       10.89700
H          3.68400        8.40600       11.25900
C          5.53300        9.80300       10.46600
H          4.83800       10.32100       10.98600
H          6.18000        9.41200       11.05300
C          6.30800       10.70100        9.52300
H          6.82900       11.35500       10.04700
H          6.81800       10.15600        8.97300
C          4.08000       12.56600        9.46900
C          4.54800       13.24900       10.59800
H          5.35500       13.25600       10.83000
C          3.64400       13.92300       11.42300
H          3.99200       14.34500       12.15000
C          2.30600       13.92400       11.10900
H          1.77000       14.31700       11.61300
C          1.82900       13.28400        9.97400
H          0.91300       13.29800        9.73300
C          2.72900       12.59300        9.16500
H          2.35300       12.19500        8.45800
C          6.18500       11.28400        4.32900
C          5.53800       10.27100        3.59800
H          4.56400       10.16900        3.70500
C          6.27500        9.52900        2.68100
H          5.81700        8.92900        2.17000
C          7.62300        9.77400        2.49500
H          8.13700        9.28800        1.87500
C          8.26500       10.77200        3.21500
H          9.24800       10.88600        3.15500
C          7.53300       11.52300        4.13700
H          7.97200       12.19500        4.60900
Cl         7.52700       14.73100        5.77400
Cl         7.73200       13.73700        9.03100
Pd         6.43200       13.14500        7.14800
Cl         1.43400       11.15300        3.33000
Cl         0.23400        9.27800        1.50800
Cl         2.91100       10.23700        1.01900
C          1.72300        9.80400        2.23300
H          2.13300        9.26000        2.68500
