163
C:\Users\Javier\OneDrive - Universitat de Barcelona\Tesi\4 - Contribucions\Treballs\3-PhD\chapter_1\cif\pc2p\VALWAJ.pc2p.pdb
F         10.15300        5.70500       10.34400
F         11.93500        6.25400       11.28400
F         11.25000        4.32600       11.50000
F         10.41900        6.29100       17.20600
F         10.41400        8.27400       16.60900
F         12.05000        7.14800       16.09800
F          4.42900       10.98800       15.76000
F          5.42700       12.46500       14.57700
F          6.52000       11.25200       15.90700
F          4.85100       10.11900        9.69600
F          6.76400       11.05800       10.01500
F          6.62600        9.04800        9.44700
F          5.79000        3.77100       19.57500
F          7.59700        4.60700       18.81800
F          6.82200        2.82000       17.98800
F          1.49900        5.62000       17.20100
F          2.31800        6.98300       18.48500
F          2.01400        7.54300       16.49100
F          7.38000        1.41300       12.62700
F          6.79900        1.32600       10.56500
F          5.50900        0.55800       12.06900
F          1.72600        3.74700       10.77900
F          2.14900        5.78400       10.66800
F          2.84600        4.43000        9.19000
C          7.93600        6.23900       13.83700
C          8.68200        5.90600       12.69900
C         10.06900        5.95200       12.68000
C         10.77700        6.31700       13.81800
C         10.06300        6.66100       14.94700
C          8.66900        6.64200       14.94900
C         10.82700        5.56300       11.44800
C         10.76400        6.99900       16.21100
C          5.99300        7.84100       13.38600
C          5.80700        8.85600       14.32300
C          5.70100       10.20800       13.96300
C          5.78000       10.57500       12.63900
C          5.97300        9.58800       11.68100
C          6.06900        8.25300       12.05100
C          5.50500       11.22200       15.02600
C          6.03700        9.97500       10.23300
C          5.63800        5.93000       15.28700
C          6.26200        5.11100       16.23300
C          5.67900        4.81700       17.46000
C          4.43800        5.31100       17.80000
C          3.77500        6.08700       16.86800
C          4.36000        6.38500       15.64700
C          6.45700        4.00800       18.46100
C          2.41000        6.60000       17.22300
C          5.66700        5.18500       12.79300
C          6.23700        3.90300       12.69700
C          5.69000        2.90300       11.90800
C          4.53200        3.14200       11.17000
C          3.93200        4.39100       11.26600
C          4.49100        5.39400       12.05100
C          6.34400        1.56100       11.79500
C          2.68100        4.63000       10.46900
B          6.29100        6.28600       13.82000
H          8.23100        5.59500       11.92700
H         11.64500        6.34200       13.76700
H          8.21300        6.90500       15.74000
H          5.73100        8.65600       15.21400
H          5.74300       11.36900       12.39600
H          6.17700        7.62000       11.36300
H          7.06200        4.71400       16.05900
H          4.05400        5.14400       18.59400
H          3.91700        6.82600       15.02600
H          7.06700        3.67500       13.14800
H          4.15200        2.44900       10.59300
H          4.03700        6.20300       12.09600
C         15.77900       14.52200       15.58000
C         14.40300       14.65800       14.95300
C         13.95300       16.11200       14.75900
C         12.54700       16.15900       14.14700
C         11.96700       17.57400       14.00200
C         12.49600       10.85400       16.31400
C         13.81000       11.27000       16.96200
C         13.90300       10.68100       18.39000
C         12.72800       11.05500       19.23900
C         11.44100       10.64700       18.58500
C         11.31100       11.24400       17.18200
C         13.76100       10.73400       13.70500
C         13.91100       11.19900       12.26500
C         15.13800       10.58600       11.62100
C         15.13500        9.07400       11.69800
C         15.00200        8.61000       13.12100
C         13.75000        9.20600       13.78100
C         10.86400       10.66000       13.86100
C          9.63100       11.53700       13.89900
C          8.77100       14.15100       14.77800
C          8.96600       13.89200       16.27900
C          7.89300       14.60800       17.12200
C          7.85000       16.08800       16.82500
C          7.57100       16.29000       15.35300
C          8.66300       15.64700       14.49400
C          9.75600       13.86900       12.04900
C         10.70600       13.18400       11.05300
C         10.50000       13.75200        9.64500
C          9.05900       13.60100        9.19000
C          8.11100       14.23800       10.17800
C          8.31000       13.67000       11.58700
Rh        12.15600       13.67900       14.39600
P         10.08100       13.31800       13.77500
P         12.31300       11.49600       14.58800
H         15.96400       13.56600       15.74000
H         16.46400       14.98900       14.96900
H         15.89000       15.08000       16.47200
H         14.58500       16.62600       14.19900
H         14.02500       16.59800       15.62700
H         10.98500       17.53200       13.48600
H         12.71400       18.22800       13.54200
H         11.88100       18.02300       14.98800
H         12.47800        9.89400       16.20900
H         14.55600       11.06800       16.41600
H         13.85300       12.26700       17.05400
H         14.77100       10.96500       18.59400
H         13.90000        9.77900       18.31300
H         12.74500       12.04300       19.38300
H         12.80800       10.65100       20.05900
H         11.29600        9.56400       18.53800
H         10.71200       10.88700       19.08300
H         11.28100       12.12800       17.22300
H         10.40500       10.86100       16.73500
H         14.54400       11.11100       14.12400
H         14.04500       12.18900       12.28400
H         13.02300       10.83500       11.83300
H         15.19300       10.87200       10.85600
H         15.86900       11.03900       12.09600
H         15.90400        8.61900       11.28800
H         14.28900        8.69900       11.28800
H         15.80500        8.93900       13.56100
H         14.76500        7.62800       13.09100
H         12.99800        8.87500       13.33500
H         13.70200        8.99100       14.63100
H         11.05100       10.54700       12.94100
H         10.59500        9.77400       14.29300
H          9.01200       11.25500       13.14800
H          9.21900       11.36700       14.89400
H          7.89000       13.76500       14.53700
H          9.83300       14.25400       16.54700
H          8.93800       12.91300       16.37800
H          6.96400       13.98300       16.92300
H          8.00800       14.46500       17.97500
H          7.18600       16.49400       17.31700
H          8.85400       16.43000       17.01700
H          7.57800       17.24200       15.17600
H          6.72900       15.76300       15.17600
H          8.55500       15.87400       13.44800
H          9.51100       16.04400       14.74400
H          9.96300       14.85600       12.05800
H         11.58800       13.36500       11.26900
H         10.49400       12.13500       11.08200
H         11.08700       13.30600        8.95900
H         10.75600       14.72900        9.54100
H          8.98400       14.00800        8.33900
H          8.77800       12.53200        9.10900
H          8.35000       15.20800       10.18000
H          7.21900       14.02200        9.89800
H          7.71600       14.09200       12.22700
H          8.06100       12.61300       11.58900
H         12.56000       15.73000       13.22300
H         14.34600       14.17000       14.01200
H         13.96500       14.23400       15.58900
H         12.04400       15.86100       14.72500
