79
C:\Users\Javier\OneDrive - Universitat de Barcelona\Tesi\4 - Contribucions\Treballs\3-PhD\chapter_1\cif\pc2p\VAQPUY.pc2p.pdb
Ag         7.04400       23.94100       -3.84600
Pd         8.58000       19.37000       -0.55000
Cl         5.79400       25.18400       -2.36300
Cl         8.35300       22.67300       -5.25800
Cl         6.20800       12.03000        1.25400
Cl         5.56600       14.18900        0.21900
S          8.20400       17.11000       -1.01600
S         10.72400       18.46400       -0.77400
P          6.44100       20.16400       -0.42100
P          9.21600       21.48300       -0.12200
N         10.52900       15.83000       -1.28700
C          6.52100       21.95500       -0.02600
C          7.80600       22.53400       -0.56300
C          9.90400       16.97400       -1.04000
C          9.77200       14.60000       -1.52900
C          9.41900       13.86800       -0.31100
C         11.99700       15.74900       -1.26500
C         12.52000       15.78600       -2.63500
C          5.60900       20.00500       -1.98900
C          4.26200       19.65500       -2.10900
C          3.67300       19.56200       -3.35400
C          4.39600       19.76500       -4.48100
C          5.71300       20.11800       -4.37800
C          6.31400       20.22100       -3.13500
C          5.30900       19.40000        0.79500
C          5.24400       18.06700        0.89800
C          4.37500       17.46400        1.77100
C          3.56700       18.28300        2.59900
C          3.65100       19.58600        2.47900
C          4.51500       20.20600        1.59400
C         10.64200       22.12200       -1.03200
C         11.77600       22.61000       -0.42500
C         12.82200       23.09200       -1.17900
C         12.76100       23.04300       -2.54900
C         11.63300       22.51200       -3.16500
C         10.58900       22.04600       -2.44300
C          9.56300       21.73500        1.60100
C          9.57700       23.00900        2.19800
C          9.91100       23.16600        3.51800
C         10.20400       22.05600        4.27800
C         10.17400       20.79900        3.72300
C          9.84300       20.62200        2.38000
C          5.53000       12.55900        0.20700
H          5.66500       22.46700       -0.43600
H          6.50400       22.10000        1.06700
H          7.96200       23.54500       -0.15000
H          7.76100       22.63900       -1.65200
H         10.33500       13.94100       -2.17800
H          8.84400       14.87200       -2.07300
H          8.78700       12.98600       -0.43600
H         10.24900       13.57400        0.36100
H          8.77400       14.57800        0.34600
H         12.35300       14.84800       -0.76600
H         12.45900       16.61200       -0.73600
H         13.61500       15.68100       -2.76400
H         12.09800       14.92100       -3.29000
H         12.21200       16.71000       -3.17000
H          3.67300       19.47800       -1.21700
H          2.59600       19.25800       -3.41000
H          3.86600       19.69900       -5.46800
H          6.28800       20.28700       -5.30300
H          7.37900       20.50700       -3.06500
H          5.89700       17.42000        0.22500
H          4.32500       16.34200        1.84800
H          2.93300       17.76300        3.32000
H          3.00700       20.23800        3.14000
H          4.61800       21.29100        1.51700
H         11.83300       22.63900        0.67600
H         13.71400       23.52100       -0.72100
H         13.59100       23.39800       -3.18500
H         11.61800       22.46700       -4.26600
H          9.71400       21.61000       -2.98900
H          9.31800       23.88800        1.59200
H          9.98000       24.15800        3.98100
H         10.43500       22.17300        5.36300
H         10.40700       19.91900        4.37100
H          9.79900       19.60100        1.95300
C          4.44700       11.94200       -0.20700
Cl         3.76900       12.47100       -1.25400
