109
C:\Users\Javier\OneDrive - Universitat de Barcelona\Tesi\4 - Contribucions\Treballs\3-PhD\chapter_1\cif\pc2p\VASDIE.pc2p.pdb
Pd         4.13900        8.24000        8.22600
S          2.86500        9.73000        9.52300
P          5.24400        6.57800        7.15600
P          4.61500       15.37600       16.63900
N          5.70900       15.01900       10.51800
O          9.73600       16.38000       12.82200
F          3.89100       14.53200       18.04300
F          4.47600       14.14400       15.89300
F          4.53100       16.66000       17.80200
F          3.11400       15.81700       16.39800
F          5.18900       16.27500       15.74000
F          5.92300       14.93100       17.34100
C          3.72500       11.23200        9.81900
C          5.10300       11.35100        9.94600
H          5.62900       10.57700        9.84100
C          5.74100       12.54800       10.22000
H          6.67500       12.56500       10.32500
C          5.02100       13.69900       10.34100
C          3.63600       13.62600       10.27800
H          3.12100       14.40300       10.40400
C          2.98900       12.37600       10.02400
H          2.05100       12.33800        9.99700
C          6.96400       14.88200       11.23400
H          6.79900       14.47600       12.10000
H          7.36200       15.75700       11.35800
H          7.56800       14.31900       10.72400
C          4.74000       15.95700       11.10100
H          4.59300       15.73300       12.03200
H          3.90300       15.90100       10.61600
H          5.08900       16.86000       11.03900
C          5.98800       15.63100        9.16300
H          6.38400       16.51000        9.28000
H          5.15800       15.71500        8.66800
H          6.60100       15.06100        8.67200
C          7.03700        6.75500        7.12000
C          7.71800        6.78000        8.33900
H          7.24800        6.66400        9.14400
C          9.09100        6.97200        8.35900
H          9.54800        6.98300        9.18100
C          9.78000        7.14000        7.20500
H         10.71100        7.26600        7.22500
C          9.11100        7.13300        6.00600
H          9.58900        7.23800        5.20400
C          7.74100        6.97600        5.97200
H          7.28800        7.01800        5.15000
C          4.70900        6.23400        5.45800
C          3.90400        7.11600        4.77600
H          3.64500        7.92400        5.17500
C          3.46800        6.79400        3.47400
H          2.92100        7.39900        3.00400
C          3.82900        5.63500        2.89800
H          3.52600        5.43600        2.03100
C          4.64100        4.73600        3.56400
H          4.89400        3.93100        3.15100
C          5.08100        5.03700        4.85000
H          5.63100        4.42800        5.31000
C          4.90200        5.03000        8.07400
H          5.14400        4.25300        7.53300
H          5.41800        5.00500        8.90700
S          5.41300        9.73000        6.93000
P          3.03500        6.57800        9.29600
N          2.57000       15.01900        5.93500
C          4.55300       11.23200        6.63400
C          3.17600       11.35100        6.50600
H          2.65000       10.57700        6.61200
C          2.53800       12.54800        6.23200
H          1.60400       12.56500        6.12800
C          3.25800       13.69900        6.11200
C          4.64300       13.62600        6.17400
H          5.15800       14.40300        6.04900
C          5.29000       12.37600        6.42900
H          6.22800       12.33800        6.45600
C          1.31500       14.88200        5.21900
H          1.48000       14.47600        4.35200
H          0.91700       15.75700        5.09500
H          0.71100       14.31900        5.72900
C          3.53900       15.95700        5.35100
H          3.68600       15.73300        4.42000
H          4.37600       15.90100        5.83600
H          3.19000       16.86000        5.41400
C          2.29100       15.63100        7.29000
H          1.89500       16.51000        7.17200
H          3.12100       15.71500        7.78400
H          1.67800       15.06100        7.78100
C          1.24200        6.75500        9.33300
C          0.56100        6.78000        8.11300
H          1.03100        6.66400        7.30800
C         -0.81200        6.97200        8.09400
H         -1.26900        6.98300        7.27200
C         -1.50100        7.14000        9.24700
H         -2.43300        7.26600        9.22800
C         -0.83200        7.13300       10.44600
H         -1.31000        7.23800       11.24800
C          0.53800        6.97600       10.48000
H          0.99100        7.01800       11.30300
C          3.57000        6.23400       10.99500
C          4.37500        7.11600       11.67700
H          4.63400        7.92400       11.27800
C          4.81100        6.79400       12.97900
H          5.35800        7.39900       13.44800
C          4.45000        5.63500       13.55500
H          4.75300        5.43600       14.42100
C          3.63800        4.73600       12.88900
H          3.38500        3.93100       13.30100
C          3.19800        5.03700       11.60200
H          2.64800        4.42800       11.14300
C          3.37600        5.03000        8.37900
H          3.13500        4.25300        8.91900
H          2.86100        5.00500        7.54500
