100
C:\Users\Javier\OneDrive - Universitat de Barcelona\Tesi\4 - Contribucions\Treballs\3-PhD\chapter_1\cif\pc2p\VAXDUU.pc2p.pdb
Ru        10.50500        5.64800       10.86600
Fe        12.79300        0.15100       12.24600
P          8.72600        4.27500       10.81900
C          7.01700        4.95800       10.88400
C          5.88400        4.15900       10.72200
C          4.61500        4.68500       10.89900
C          4.46300        6.01600       11.22700
C          5.57000        6.83200       11.36300
C          6.83700        6.29700       11.19600
C          8.55000        3.04800        9.47300
C          8.94200        1.72100        9.60700
C          8.80600        0.83400        8.54300
C          8.28000        1.26300        7.33500
C          7.90200        2.57600        7.18500
C          8.03500        3.46200        8.24700
C          8.73400        3.26700       12.36100
C          8.94000        4.22700       13.53100
P         10.27700        5.44300       13.12000
C          9.79600        6.92300       14.09800
C          8.46500        7.35400       14.16300
C          8.13700        8.52700       14.82000
C          9.11100        9.31800       15.39100
C         10.43400        8.91200       15.33500
C         10.77200        7.71900       14.71200
C         11.70600        4.84400       14.10700
C         12.97200        4.81200       13.54100
C         14.05900        4.38000       14.28900
C         13.89000        3.97900       15.59900
C         12.64200        4.00000       16.16500
C         11.54200        4.44100       15.43300
C         11.45800        3.87500       10.87100
C         12.04800        2.82500       10.81400
C         11.08600        6.27600        8.81600
C         11.09000        5.40000        7.60600
C         10.02000        7.13300        9.26000
C          8.75700        7.38200        8.50800
C         10.47100        7.85900       10.40500
C          9.77300        8.99800       11.07200
C         11.83800        7.46900       10.66100
C         12.75300        8.10600       11.65700
C         12.21800        6.51100        9.67800
C         13.57600        5.92100        9.49300
C         12.78800        1.60100       10.78600
C         14.10400        1.38900       11.32400
C         14.46600        0.03400       11.10000
C         13.38700       -0.61300       10.44900
C         12.35500        0.34200       10.25900
C         11.69300        0.90800       13.76900
C         12.98000        0.57500       14.22600
C         13.18600       -0.80200       14.00400
C         12.01500       -1.32000       13.41600
C         11.08800       -0.25700       13.27300
H          5.99500        3.23200       10.47700
H          3.83800        4.12600       10.79600
H          3.57900        6.37400       11.35500
H          5.46200        7.76300       11.59400
H          7.61000        6.86200       11.29000
H          9.30400        1.41700       10.44800
H          9.08600       -0.07900        8.64700
H          8.17900        0.64100        6.60200
H          7.55600        2.89000        6.34400
H          7.74600        4.37400        8.13800
H          7.91000        2.79200       12.45000
H          9.44900        2.62700       12.33000
H          9.18000        3.73600       14.31600
H          8.12100        4.69200       13.70700
H          7.77600        6.81400       13.75600
H          7.21500        8.78500       14.87600
H          8.87800       10.15300       15.81700
H         11.12400        9.45300       15.73600
H         11.68700        7.43400       14.69900
H         13.09000        5.08600       12.63000
H         14.93900        4.36200       13.89500
H         14.64000        3.68500       16.11600
H         12.52800        3.70200       17.06800
H         10.67600        4.47600       15.84000
H         11.41700        5.87900        6.85100
H         10.21100        5.08700        7.42200
H         11.66200        4.65500        7.75500
H          8.58100        6.64500        7.93100
H          8.84700        8.17200        7.98400
H          8.03000        7.49400        9.11600
H          8.83300        8.93200       10.92300
H         10.08600        9.82400       10.71300
H          9.94400        8.98400       12.00900
H         13.06300        8.94600       11.31900
H         13.50800        7.54200       11.80800
H         12.29700        8.24900       12.47600
H         13.99500        5.82000       10.34200
H         14.10400        6.49700        8.95100
H         13.50500        5.06900        9.06700
H         14.64400        2.06000       11.76700
H         15.30000       -0.37000       11.34100
H         13.36400       -1.53800       10.17800
H         11.49700        0.17700        9.85000
H         11.28800        1.78200       13.79800
H         13.61100        1.18500       14.61600
H         13.98800       -1.29500       14.21600
H         11.86500       -2.23000       13.14400
H         10.20200       -0.32100       12.89900
