102
C:\Users\Javier\OneDrive - Universitat de Barcelona\Tesi\4 - Contribucions\Treballs\3-PhD\chapter_1\cif\pc2p\VEWDEH.pc2p.pdb
Ru         6.37600        4.65000        5.49600
Cl         4.40600        4.50900        4.10100
P          7.34300        2.89200        4.36700
N          5.49200        3.48700        7.05900
C          6.26000        3.32600        8.15000
N          7.87700        4.86500        7.05500
C          5.77500        2.77100        9.33300
H          6.33900        2.67700       10.09200
P          7.21400        5.92700        3.76600
N          5.49100        6.23500        6.62500
C          4.45000        2.35800        9.38000
H          4.09500        1.96300       10.16800
C          3.65900        2.53300        8.26700
H          2.74800        2.26400        8.28100
C          4.20100        3.10500        7.12600
H          3.64400        3.23300        6.36800
C          7.69500        3.71800        8.00300
H          8.21200        2.94100        7.67500
H          8.05500        3.97100        8.89000
C          7.60900        6.15300        7.77300
H          7.87700        6.05000        8.72000
H          8.17200        6.86200        7.37500
C          6.18300        6.58600        7.72200
C          5.63900        7.38900        8.71400
H          6.14600        7.61600        9.48400
C          4.34400        7.85500        8.56200
H          3.94200        8.39300        9.23400
C          3.64300        7.52300        7.41600
H          2.76300        7.85200        7.27700
C          4.24100        6.70900        6.48000
H          3.75200        6.47500        5.70000
C          9.32500        4.86800        6.63600
H          9.45600        5.58100        5.96000
H          9.52900        4.00300        6.20200
C         10.32100        5.08800        7.77200
H         11.23300        5.07800        7.41300
H         10.22300        4.37300        8.43500
H         10.14600        5.95400        8.19700
C          8.42000        1.70300        5.25500
C          7.79800        0.82600        6.15200
H          6.85300        0.83600        6.24000
C          8.55500       -0.05800        6.91600
H          8.12300       -0.64400        7.52500
C          9.93600       -0.08900        6.79200
H         10.45200       -0.68700        7.31900
C         10.55900        0.76200        5.89100
H         11.50400        0.74000        5.80000
C          9.81400        1.65000        5.11900
H         10.25100        2.22100        4.49700
C          6.29100        1.68000        3.46600
C          5.07600        1.28300        4.00700
H          4.75800        1.70100        4.79900
C          4.31600        0.28100        3.40700
H          3.49200        0.01300        3.79600
C          4.75400       -0.31700        2.25900
H          4.23600       -0.99700        1.84700
C          5.94000        0.06600        1.70800
H          6.23300       -0.33400        0.89700
C          6.72200        1.03600        2.31900
H          7.56600        1.26200        1.94500
C          8.41400        3.60200        3.06000
H          9.26100        3.93600        3.45400
H          8.63200        2.91400        2.38200
C          7.64000        4.75000        2.42100
H          6.81800        4.41000        1.98900
H          8.19500        5.19800        1.73500
C          8.74500        6.92700        3.96300
C          8.73800        7.94800        4.91000
H          7.95100        8.11600        5.41500
C          9.87100        8.72500        5.12400
H          9.85000        9.42900        5.76200
C         11.02900        8.47200        4.40700
H         11.80700        8.99700        4.55500
C         11.04900        7.45400        3.47700
H         11.84500        7.27800        2.98800
C          9.91800        6.68100        3.24900
H          9.94300        5.98500        2.60400
C          6.14500        7.18400        2.94900
C          5.70900        8.29400        3.64500
H          5.89000        8.35600        4.57500
C          5.00900        9.32500        3.01900
H          4.74300       10.09200        3.51200
C          4.70800        9.21800        1.67600
H          4.26100        9.92600        1.22700
C          5.06000        8.08900        1.00100
H          4.78800        7.98200        0.09800
C          5.81500        7.08600        1.61900
H          6.10000        6.33200        1.11500
B          9.18200        3.65800       11.52500
F          9.97800        3.93100       12.62000
F          8.14400        2.81300       11.86900
F          9.94900        3.08600       10.52400
F          8.65100        4.85800       11.04300
C          5.75500       -3.11700       -1.14100
H          5.60600       -2.21800       -1.52900
H          5.74600       -3.76900       -1.88700
H          5.07700       -2.75900       -0.56400
H          5.36400       -3.26500       -2.00700
Cl         4.46300       -3.47800       -0.08400
Cl         7.29800       -3.14700       -0.40800
Cl         6.29200       -4.54900       -0.53500
Cl         7.18700       -1.83100       -1.31700
