98
C:\Users\Javier\OneDrive - Universitat de Barcelona\Tesi\4 - Contribucions\Treballs\3-PhD\chapter_1\cif\pc2p\VEXPOE.pc2p.pdb
Ru         7.95200       14.24100        7.17200
Cl         8.46700       16.59600        7.40100
P          9.12700       14.38800        5.19300
N          7.22000       12.30100        7.18000
C          6.26200       12.04500        8.10900
P         10.03500       13.78800        8.10600
N          6.67800       14.37200        8.96500
C          5.64000       10.81200        8.20100
H          4.98100       10.65900        8.86800
N          6.02200       14.75200        6.40400
C          5.98400        9.80200        7.31700
H          5.55200        8.95600        7.35600
C          6.96500       10.04800        6.38000
H          7.22400        9.37400        5.76200
C          7.56600       11.29000        6.35400
H          8.26000       11.44200        5.72200
C          5.89800       13.11300        9.09500
H          4.93700       13.32600        8.98900
H          6.02700       12.75600       10.00900
C          5.74600       15.50000        8.67800
H          6.22000       16.36100        8.79700
H          4.98800       15.47500        9.31600
C          5.22900       15.40000        7.27900
C          4.00600       15.94100        6.90000
H          3.48300       16.42800        7.52400
C          3.56400       15.75900        5.60500
H          2.74400       16.14400        5.31700
C          4.32700       15.01400        4.74200
H          4.01900       14.83600        3.86300
C          5.54700       14.52400        5.16300
H          6.07000       14.01000        4.55800
C          7.40900       14.68400       10.22100
H          8.02400       15.43900       10.04300
H          7.96500       13.90000       10.46000
C          6.55200       15.04300       11.42500
H          7.12400       15.14400       12.21500
H          5.89800       14.33100       11.58200
H          6.08400       15.88700       11.25200
C          8.80500       15.76700        4.01800
C          7.80300       16.70900        4.19400
H          7.21000       16.63300        4.93400
C          7.65600       17.76700        3.29800
H          6.96000       18.40100        3.41900
C          8.53000       17.89100        2.23200
H          8.44400       18.62300        1.63200
C          9.52200       16.95800        2.03900
H         10.11300       17.04100        1.30000
C          9.66300       15.89200        2.92100
H         10.34500       15.24600        2.77900
C          9.20000       13.00200        3.98200
C          8.17300       12.85700        3.04900
H          7.48800       13.51300        3.00300
C          8.13500       11.76800        2.18800
H          7.42000       11.67600        1.56900
C          9.14400       10.81300        2.23100
H          9.11500       10.06000        1.65200
C         10.18600       10.96400        3.12000
H         10.88900       10.32700        3.13400
C         10.21100       12.04500        3.99600
H         10.92800       12.13100        4.61200
C         10.87500       14.74600        5.61000
H         11.44700       14.54600        4.82600
H         10.97200       15.70800        5.82200
C         11.34700       13.91500        6.80400
H         12.15600       14.33100        7.19400
H         11.59000       13.00600        6.49500
C         10.67800       14.89600        9.42400
C         11.22400       16.13600        9.09300
H         11.28800       16.39700        8.18100
C         11.67800       16.99600       10.09900
H         12.03700       17.84500        9.87000
C         11.60700       16.61300       11.42700
H         11.92300       17.19600       12.10700
C         11.07900       15.39200       11.76600
H         11.02900       15.13300       12.67800
C         10.61500       14.52500       10.77100
H         10.25400       13.68000       11.01300
C         10.47200       12.17900        8.87000
C          9.51100       11.27800        9.31400
H          8.58900       11.47800        9.20400
C          9.89500       10.08100        9.92100
H          9.23000        9.47000       10.21900
C         11.22500        9.77900       10.09100
H         11.47700        8.95700       10.49500
C         12.20500       10.68000        9.66900
H         13.12400       10.47800        9.79100
C         11.82800       11.86600        9.07200
H         12.49600       12.48200        8.79300
B          6.77500       11.08700       12.37000
F          7.70400       12.04100       12.01100
F          6.55900       11.15300       13.74100
F          7.32100        9.83000       12.08700
F          5.59400       11.26100       11.68700
Cl        15.51500       12.97100        8.05000
Cl        15.98600       10.82400        6.11800
C         15.73200       12.50300        6.40900
H         16.50700       13.00100        6.04700
H         14.93300       12.78900        5.89900
