77
C:\Users\Javier\OneDrive - Universitat de Barcelona\Tesi\4 - Contribucions\Treballs\3-PhD\chapter_1\cif\pc2p\VIBJUL.pc2p.pdb
Pd        14.53300        4.09400       -3.56700
S         14.52800        5.59600       -5.37100
P         14.30400        2.44100       -2.04100
C         14.78000        0.84500       -2.84300
C         15.36300        7.09200       -4.93300
C         16.52700        7.12500       -4.18800
C         17.15800        8.33900       -3.93700
C         16.66000        9.49900       -4.45100
C         15.51700        9.47400       -5.18800
C         14.85500        8.28300       -5.42400
C         12.58700        2.24100       -1.51000
C         11.66300        3.21600       -1.84500
C         10.35400        3.13100       -1.37700
C          9.97500        2.10000       -0.57900
C         10.86000        1.12400       -0.25700
C         12.17900        1.17300       -0.72200
C         15.28300        2.53400       -0.50900
C         14.70800        2.86000        0.69800
C         15.50800        3.02100        1.81700
C         16.81700        2.83900        1.76900
C         17.42100        2.51500        0.59500
C         16.65700        2.37400       -0.57500
H         15.73300        0.81900       -2.81100
H         14.40300        0.08200       -2.35400
H         16.84600        6.32400       -3.93800
H         17.87700        8.33900       -3.46800
H         17.13000       10.23900       -4.38100
H         15.22400       10.23900       -5.56500
H         14.11500        8.29000       -5.93600
H         11.87000        3.93200       -2.38300
H          9.72300        3.80100       -1.67000
H          9.06300        2.06400       -0.21400
H         10.64800        0.39300        0.34200
H         12.80400        0.54100       -0.51400
H         13.84400        2.98200        0.77100
H         15.05200        3.08000        2.61100
H         17.30600        2.91600        2.52600
H         18.23200        2.42500        0.44200
H         16.97800        2.21200       -1.34100
S         14.53700        5.59600       -1.76400
P         14.76100        2.44100       -5.09400
C         14.28500        0.84500       -4.29200
C         13.70200        7.09200       -2.20200
C         16.47800        2.24100       -5.62500
C         13.78300        2.53400       -6.62500
H         13.33200        0.81900       -4.32400
H         14.66200        0.08200       -4.78000
C         12.53800        7.12500       -2.94700
C         14.21000        8.28300       -1.71100
C         17.40200        3.21600       -5.29000
C         16.88600        1.17300       -6.41300
C         14.35700        2.86000       -7.83300
C         12.40800        2.37400       -6.56000
C         11.90700        8.33900       -3.19800
H         12.21900        6.32400       -3.19600
C         13.54800        9.47400       -1.94600
H         14.95000        8.29000       -1.19900
C         18.71100        3.13100       -5.75800
H         17.19500        3.93200       -4.75200
C         18.20500        1.12400       -6.87800
H         16.26100        0.54100       -6.62100
C         13.55700        3.02100       -8.95100
H         15.22100        2.98200       -7.90500
C         11.64500        2.51500       -7.73000
H         12.08800        2.21200       -5.79300
C         12.40500        9.49900       -2.68400
H         11.18800        8.33900       -3.66700
H         13.84100       10.23900       -1.57000
C         19.09000        2.10000       -6.55500
H         19.34300        3.80100       -5.46500
H         18.41700        0.39300       -7.47700
C         12.24900        2.83900       -8.90400
H         14.01300        3.08000       -9.74600
H         10.83300        2.42500       -7.57700
H         11.93500       10.23900       -2.75400
H         20.00200        2.06400       -6.92100
H         11.76000        2.91600       -9.66100
