142
C:\Users\Javier\OneDrive - Universitat de Barcelona\Tesi\4 - Contribucions\Treballs\3-PhD\chapter_1\cif\pc2p\VIGWUG.pc2p.pdb
Rh         8.26300        6.22000        5.13200
P          6.73400        7.10100        3.72600
Cl         7.99900        2.67900        4.15100
P          9.65400        7.75800        4.25700
Cl         6.95100       10.60200        8.85600
Cl        11.23800        5.74600        7.24000
Cl         3.46800        1.67100       11.18200
Cl         6.94500        7.44100       13.21400
Cl         8.81700        1.28400       10.55000
Cl         2.16800        3.11200        5.48100
Cl         1.45900        8.02700        7.55800
C          5.34400        8.06200        4.50900
H          4.95300        7.49600        5.20600
C          4.56900        5.49400        7.67400
C          4.20600        8.43900        3.53000
H          4.56100        8.99600        2.82000
H          3.84400        7.63300        3.12800
C          7.25800        5.24600        7.20200
C          6.39200        6.64600        9.31700
C          6.54500        7.92700        8.77000
H          6.47400        8.04500        7.85000
C          4.03500        4.40900        6.94800
H          4.53300        3.63000        6.85400
C          8.23600        3.93000        5.33200
C          6.52400        6.52600       10.70000
H          6.43300        5.69200       11.10200
C         10.57800        8.82400        5.46100
H         11.23900        8.24800        5.90000
C          7.12900        4.42700        6.04500
H          6.27400        4.20900        5.74700
C          4.96000        3.45000        9.78600
H          4.15200        3.89200        9.65700
C         10.99500        7.13600        3.11500
H         11.33100        7.90900        2.61500
C          7.52100        8.30700        2.56900
H          7.79600        7.84700        1.76200
H          6.87400        8.98700        2.32200
C         11.36300        9.96600        4.78200
H         11.95400        9.59600        4.10700
H         10.74200       10.56500        4.33900
C          6.79800        9.01600        9.57400
C          5.84300        5.98400        2.53800
H          5.32800        6.56800        1.94500
C          6.76300        5.15300        1.63500
H          7.39200        5.73900        1.18700
H          7.26700        4.52500        2.17400
C          8.55600        5.69700        7.48100
H          8.69600        6.28200        8.19100
C          4.82600        5.07400        3.23200
H          4.25200        5.60200        3.80900
H          5.29000        4.42300        3.78100
C          7.32200        3.27500        9.49100
H          8.12700        3.58800        9.14900
C          4.74600       10.07800        5.93100
H          4.39800        9.51800        6.64100
H          5.10200       10.88700        6.33200
C          9.65100        5.27600        6.70100
C          6.12700        3.97100        9.21500
C          8.73400        8.97100        3.21600
H          8.44300        9.71500        3.76600
H          9.32100        9.31800        2.52700
C          3.75000        6.60700        7.83300
H          4.05600        7.33700        8.32000
C          9.52300        4.35500        5.64400
H         10.26400        4.04500        5.17500
C         10.46000        6.13700        2.08700
H          9.75500        6.55800        1.56900
H         10.07700        5.37500        2.55100
C          5.87000        9.33500        5.19300
H          6.56800        9.09600        5.82400
H          6.26000        9.92100        4.52500
C          2.47500        6.63800        7.26800
C          7.30800        2.12900       10.26600
C         11.30600       11.26900        6.95100
H         11.86900       11.68600        7.62100
H         10.69700       11.94200        6.61000
C          3.08500        9.19400        4.25800
H          2.40500        9.45700        3.61600
H          2.67000        8.60500        4.90800
C          4.98100        2.28300       10.54600
B          6.06800        5.37300        8.33600
C          6.78600        7.64100       11.48400
C          2.77600        4.48900        6.37500
C          3.62100       10.43600        4.96800
H          3.95000       11.06700        4.31000
H          2.90100       10.86300        5.45900
C          9.67600        9.37600        6.56000
H          9.20500        8.64600        6.99200
H          9.01600        9.97200        6.16900
C          3.97600        4.35200        2.18000
H          3.33700        3.77300        2.62200
H          3.48400        5.00500        1.65900
C          6.15100        1.59600       10.81200
H          6.16100        0.82100       11.32800
C          6.92200        8.90600       10.95400
H          7.08800        9.64700       11.49000
C         12.18900        6.53400        3.87100
H         12.55800        7.20000        4.47200
H         11.88600        5.78400        4.40500
C         12.18400       10.74800        5.80200
H         12.61400       11.49800        5.36100
H         12.87900       10.17600        6.16200
C          5.93800        4.39700        0.59700
H          6.52600        3.83700        0.06700
H          5.51100        5.03400        0.00000
C          1.97700        5.59200        6.50900
H          1.13900        5.63700        6.10700
C         12.74000        5.04800        1.91900
H         12.44300        4.25600        2.39600
H         13.44200        4.78500        1.30400
C          4.86200        3.52200        1.25400
H          4.31600        3.11000        0.56500
H          5.28800        2.81300        1.76200
C         11.56500        5.64700        1.13200
H         11.20100        4.97500        0.53400
H         11.88000        6.38900        0.59600
C         10.50400       10.13800        7.59700
H          9.91100       10.50900        8.27000
H         11.11100        9.52300        8.03800
C         13.28300        6.06000        2.90400
H         13.64000        6.82200        2.42200
H         14.01000        5.66100        3.40900
Cl         0.68600        3.18900        9.07600
Cl        -0.22000        1.95100       11.51600
C         -0.50800        3.22600       10.32900
H         -1.38900        3.11000        9.93800
H         -0.48500        4.09000       10.77000
Cl         0.78900        4.13500        9.67600
Cl        -0.30000        1.82400       11.49300
C         -0.26500        3.48100       10.91600
H         -1.17000        3.67500       10.61800
H         -0.11900        4.02900       11.70200
C          9.66500       12.30900       12.96100
C         10.36600        8.36800       12.34400
C          9.92300       10.05200       12.25500
C          9.63900       11.70200       12.59400
C          8.25900       12.41400       13.28000
Cl         4.15100        9.74900       13.41600
Cl         3.14300        9.01000       10.81400
C          3.89200       10.30100       11.74800
H          3.31900       11.08300       11.74500
H          4.74100       10.54600       11.35000
