137
C:\Users\Javier\OneDrive - Universitat de Barcelona\Tesi\4 - Contribucions\Treballs\3-PhD\chapter_1\cif\pc2p\VIGWIU.pc2p.pdb
Rh         8.33900        5.90600       21.68300
P          9.78800        5.39900       19.99600
P          9.70000        4.55100       22.98100
C          8.90500        3.16200       23.90000
H          8.28900        3.56300       24.54800
C          9.06200        4.27800       18.71500
H          8.61000        4.85000       18.06100
C         10.36300        6.89000       19.07400
H          9.55300        7.35300       18.77300
C          8.06000        2.30100       22.95700
H          7.41800        2.86400       22.49600
H          8.63600        1.89500       22.28800
C         11.29700        4.58200       20.66800
H         11.69600        4.02300       19.98100
H         11.94500        5.25800       20.92000
C          9.88400        2.28900       24.69800
H         10.52700        1.88800       24.09200
H         10.36800        2.84100       25.33100
C          9.86600        5.82500       25.47400
H          9.08600        6.32200       25.18100
H          9.55800        5.01700       25.91300
C          9.13300        1.18500       25.45100
H          9.77200        0.61700       25.90900
H          8.55800        1.58800       26.12000
C          7.31400        1.20200       23.71600
H          6.67300        1.60500       24.32400
H          6.82700        0.64700       23.08800
C         10.08400        3.43600       17.93700
H         10.78600        4.01000       17.59200
H         10.48900        2.78200       18.52800
C          9.39200        2.72100       16.78000
H         10.04400        2.19500       16.29200
H          9.01900        3.37900       16.17300
C         10.94700        3.72500       21.88800
H         11.75400        3.55100       22.39700
H         10.59400        2.87300       21.59100
C         10.70900        5.44500       24.24900
H         11.42200        4.84200       24.54800
C          7.99300        3.33200       19.29300
H          8.41200        2.70700       19.90600
H          7.33900        3.84700       19.79000
C         11.20400        6.64400       17.81500
H         12.02100        6.18100       18.05500
H         10.70900        6.08200       17.20000
C         11.36700        6.67800       23.62200
H         11.97900        6.39200       22.92500
H         10.68200        7.22700       23.20700
C          8.29000        0.33700       24.50800
H          7.79500       -0.32200       25.02100
H          8.87300       -0.13800       23.89500
C          6.70600        8.18300       22.09600
H          6.89200        9.10700       22.36000
C          8.27800        1.80800       17.28200
H          7.80400        1.43200       16.52300
H          8.66800        1.07500       17.78200
C         11.44400        9.17000       19.34700
H         10.63400        9.65100       19.11600
H         11.95600        9.72200       19.95700
C         12.12900        7.51800       24.63800
H         12.46500        8.32100       24.20800
H         12.88900        7.01400       24.96700
C          5.57600        6.34600       21.48000
H          4.82900        5.76200       21.23300
C         11.07800        7.85900       20.03400
H         10.50000        8.04400       20.79100
H         11.88500        7.43700       20.36900
C          7.29200        2.55800       18.17200
H          6.67100        1.92400       18.56200
H          6.78200        3.17900       17.62900
C         11.23400        7.90900       25.80900
H         11.74800        8.41500       26.45700
H         10.51100        8.47300       25.49100
C         11.54700        7.96900       17.13600
H         12.11400        7.79900       16.37000
H         10.73100        8.38700       16.81900
C          5.24200        7.81800       21.80000
H          4.87700        8.29700       21.03900
H          4.66200        7.91700       22.57100
C          6.67300        6.55200       20.43500
H          6.57400        6.27900       19.50100
C          7.37100        7.67200       20.81200
H          7.81700        8.26300       20.17100
C          7.05800        7.08500       23.10100
H          7.31700        7.27100       24.02700
C         12.26000        8.92300       18.08700
H         13.12100        8.54800       18.33000
H         12.41900        9.76700       17.63600
C         10.65800        6.67100       26.47500
H         10.07600        6.93900       27.20300
H         11.37900        6.14000       26.84500
C          6.37300        5.96900       22.72900
H          6.08100        5.28100       23.36400
C          9.83400        5.37200       12.76600
C          8.29400        3.18500       13.11900
C          9.44800        2.42400       13.30700
H         10.27100        2.85700       13.31400
C          7.31200        5.34500       11.80700
C          7.74400        5.49700       14.42800
C          8.24700        6.72500       14.89700
H          8.94100        7.13200       14.43000
C          7.09700        2.44700       13.06200
H          6.29900        2.90000       12.90500
C          6.69400        4.96900       15.18300
H          6.32500        4.15700       14.92000
C         10.28100        5.90900       11.55700
H          9.70100        5.92300       10.82900
C          9.42200        1.04200       13.48500
H         10.21600        0.57700       13.62300
C          6.70000        6.61100       11.83400
H          6.83600        7.15500       12.57500
C          8.21900        0.36000       13.45900
H          8.19400       -0.56000       13.59300
C          7.05600        4.58600       10.66000
H          7.44200        3.74200       10.58800
C         10.77800        5.34800       13.80500
H         10.53400        4.97600       14.62100
C          5.89700        7.08300       10.79800
H          5.52000        7.93300       10.85300
C         12.06300        5.85800       13.66100
H         12.65700        5.82700       14.37600
C          7.05800        1.06800       13.23200
H          6.24400        0.62000       13.19100
C         12.46000        6.40800       12.46000
H         13.31400        6.76300       12.36100
C          6.17700        5.59700       16.30800
H          5.46800        5.21200       16.76800
C          6.24400        5.04700        9.62100
H          6.09400        4.50900        8.87600
C          5.66100        6.29600        9.69300
H          5.11700        6.60300        9.00500
C          6.71400        6.79800       16.74500
H          6.38200        7.21900       17.50700
C          7.75000        7.35400       16.02900
H          8.12100        8.16000       16.30900
C         11.56800        6.42200       11.40300
H         11.82900        6.77600       10.58400
B          8.30000        4.82700       13.02300
