40
C:\Users\Javier\OneDrive - Universitat de Barcelona\Tesi\4 - Contribucions\Treballs\3-PhD\chapter_1\cif\pc2p\VITBUV.pc2p.pdb
Pd         0.18200        1.72000        1.39600
P         -1.65100        2.74000        2.07500
P          0.66700        1.40900        3.66000
N          1.93700        0.82800        0.55700
C         -0.33000        2.18700       -0.56600
C         -1.55500        4.52800        1.82500
C         -3.24900        2.24200        1.40800
C         -1.82600        2.49300        3.88300
C         -0.46800        2.53400        4.55300
C          2.32100        1.83500        4.30600
C          0.34800       -0.22500        4.33500
P          4.41800       14.52400        2.89100
F          3.86400       15.63700        1.96800
F          3.34300       13.54500        2.35500
F          3.45300       14.97500        4.01400
F          5.49600       15.49700        3.42200
F          5.37800       14.07000        1.76500
F          4.97100       13.40900        3.81300
H          1.88500        0.88200       -0.40000
H          2.71300        1.30200        0.86400
H          2.00000        0.09300        0.82300
H         -0.10300        1.44900       -1.13700
H         -1.27300        2.35700       -0.62400
H          0.15500        2.96700       -0.84400
H         -2.36600        4.94000        2.13100
H         -0.81000        4.88200        2.31800
H         -1.43600        4.71000        0.89100
H         -3.93800        2.78000        1.80700
H         -3.24800        2.37800        0.45800
H         -3.41400        1.31600        1.60000
H         -2.24600        1.64600        4.05700
H         -2.37900        3.18600        4.25200
H         -0.11900        3.42800        4.52100
H         -0.53100        2.27100        5.47400
H          2.37300        1.65500        5.24600
H          2.97600        1.30700        3.84200
H          2.49000        2.76700        4.14700
H          0.57700       -0.25900        5.26700
H         -0.58700       -0.41400        4.22900
H          0.86200       -0.88000        3.85500
