329
C:\Users\Javier\OneDrive - Universitat de Barcelona\Tesi\4 - Contribucions\Treballs\3-PhD\chapter_1\cif\pc2p\VUCNAL.pc2p.pdb
Ru         2.21200        9.28000       27.24600
C          3.05500       10.83500       26.70600
O          3.55800       11.77700       26.26700
P          3.62700        9.18800       29.10000
C          5.24500        9.95000       28.78000
C          5.80000       10.92200       29.61200
H          5.33300       11.21000       30.38700
C          7.04300       11.46700       29.30300
H          7.41900       12.12800       29.87200
C          7.73300       11.06100       28.18600
H          8.58400       11.43700       27.99200
C          7.19500       10.10800       27.34400
H          7.66900        9.82900       26.56900
C          5.95300        9.56200       27.64200
H          5.57700        8.91200       27.06000
C          4.02900        7.57800       29.86900
C          5.28800        6.99800       29.75400
H          5.98400        7.47200       29.31400
C          5.54500        5.73300       30.27400
H          6.40300        5.33900       30.16700
C          4.54200        5.04600       30.95000
H          4.72100        4.19100       31.32200
C          3.28400        5.61000       31.08200
H          2.59500        5.13700       31.53400
C          3.03100        6.86900       30.55000
H          2.16900        7.25400       30.65000
C          2.88500       10.15000       30.48100
H          2.26100        9.57800       30.99600
H          3.59500       10.46700       31.09400
C          2.13500       11.33900       29.89300
H          2.77200       11.97700       29.48500
H          1.63000       11.81000       30.60200
P          0.98100       10.68600       28.61600
C          0.25800       12.16300       27.84300
C         -0.70900       11.99300       26.85100
H         -1.00500       11.11700       26.63000
C         -1.24300       13.08600       26.18400
H         -1.90200       12.95900       25.51100
C         -0.81300       14.36200       26.50200
H         -1.16700       15.10900       26.03400
C          0.11700       14.55500       27.48400
H          0.39500       15.43500       27.70700
C          0.66100       13.45900       28.16100
H          1.30800       13.59900       28.84300
C         -0.35800       10.01600       29.65400
C         -0.33100        8.65400       29.99200
H          0.29900        8.07800       29.57500
C         -1.21500        8.14000       30.93000
H         -1.18700        7.21900       31.15900
C         -2.13600        8.97700       31.52700
H         -2.73300        8.63100       32.17900
C         -2.19400       10.31900       31.18200
H         -2.84500       10.88400       31.58300
C         -1.30400       10.83800       30.24900
H         -1.34300       11.75800       30.01800
C          2.65800        8.35000       25.25300
C          2.77000        7.32900       26.24500
C          1.46900        7.15900       26.86100
C          0.56000        8.06100       26.21900
C          1.29600        8.81200       25.23900
C          3.73900        8.78900       24.31300
H          4.60000        8.78600       24.78100
H          3.54500        9.69500       23.99100
H          3.77900        8.17400       23.55100
C          3.97500        6.45300       26.45200
H          3.86600        5.62300       25.94200
H          4.06500        6.24200       27.40500
H          4.77700        6.92400       26.14400
C          1.09000        6.01900       27.75000
H          0.23700        6.21800       28.19000
H          1.78400        5.88800       28.42900
H          0.99800        5.20300       27.21500
C         -0.92300        8.08600       26.43200
H         -1.31300        7.24600       26.11300
H         -1.31200        8.83600       25.93600
H         -1.11300        8.19300       27.38800
C          0.71400        9.76900       24.22900
H          0.63600        9.32100       23.36100
H          1.30300       10.54800       24.14200
H         -0.17200       10.06100       24.52800
Ru        -1.57800        0.85100       27.31300
C         -1.09600        2.52900       26.67000
O         -0.79400        3.52400       26.19100
P          0.22000        1.07100       28.75800
C          1.76600        1.72300       28.05200
C          2.52000        2.71500       28.66100
H          2.23700        3.08400       29.48900
C          3.69000        3.16900       28.06300
H          4.19700        3.85300       28.48400
C          4.12300        2.64000       26.86500
H          4.92500        2.95300       26.46500
C          3.37700        1.64900       26.25100
H          3.66800        1.27800       25.42600
C          2.20700        1.20000       26.84000
H          1.69700        0.52400       26.41000
C          0.76900       -0.39800       29.69600
C          2.10100       -0.78700       29.75300
H          2.76300       -0.28600       29.29200
C          2.46600       -1.91500       30.48900
H          3.37500       -2.19000       30.51400
C          1.50700       -2.63400       31.18400
H          1.76400       -3.38700       31.70300
C          0.18200       -2.26000       31.12200
H         -0.47500       -2.75800       31.59400
C         -0.19200       -1.15700       30.36900
H         -1.10900       -0.91600       30.31100
C         -0.22000        2.30400       30.04400
H          0.38700        2.20700       30.82000
H         -0.11000        3.21800       29.68000
C         -1.65500        2.10300       30.49100
H         -1.94900        2.88400       31.02300
H         -1.71200        1.29900       31.06700
P         -2.75900        1.89700       29.03500
C         -3.29800        3.57500       28.56800
C         -4.16300        3.70100       27.46800
H         -4.47000        2.92200       27.01900
C         -4.57300        4.94800       27.03300
H         -5.19100        5.01700       26.31500
C         -4.09100        6.09400       27.63400
H         -4.34900        6.95000       27.31300
C         -3.22100        5.98100       28.71300
H         -2.88900        6.76800       29.13000
C         -2.83100        4.73400       29.19300
H         -2.25000        4.67100       29.94200
C         -4.24800        1.15000       29.78700
C         -4.13600       -0.09300       30.41800
H         -3.29300       -0.53100       30.43800
C         -5.22900       -0.69900       31.01400
H         -5.13100       -1.53900       31.44600
C         -6.46600       -0.07700       30.98000
H         -7.22000       -0.48900       31.38700
C         -6.60000        1.15400       30.34700
H         -7.44800        1.58100       30.31900
C         -5.50900        1.76200       29.75900
H         -5.61400        2.60300       29.33000
C         -1.13500       -0.28200       25.41600
C         -1.15700       -1.24000       26.48900
C         -2.45700       -1.23900       27.06700
C         -3.26300       -0.28800       26.33700
C         -2.45600        0.29400       25.32700
C         -0.03800       -0.09200       24.42000
H          0.77900       -0.52400       24.74800
H          0.12700        0.86500       24.29400
H         -0.29900       -0.49500       23.56500
C         -0.05500       -2.19400       26.84300
H         -0.11400       -2.42300       27.79400
H          0.81200       -1.77400       26.66100
H         -0.14300       -3.00900       26.30500
C         -2.97200       -2.24600       28.05600
H         -3.15800       -3.09100       27.59500
H         -3.79600       -1.91000       28.46600
H         -2.29800       -2.39500       28.75200
C         -4.74600       -0.10200       26.48300
H         -5.02500        0.69800       25.99300
H         -4.97000       -0.00000       27.43200
H         -5.21000       -0.88600       26.12100
C         -2.90200        1.27300       24.28100
H         -3.27900        0.78700       23.51800
H         -2.13400        1.80400       23.98200
H         -3.58300        1.86800       24.65900
Ru        -2.86400       -3.54200       20.92000
C         -2.36500       -1.87100       21.53300
O         -2.08200       -0.85500       21.99600
P         -3.86300       -2.52200       19.07700
C         -4.35900       -0.80600       19.44400
C         -5.12500       -0.58200       20.59500
H         -5.42800       -1.32400       21.10600
C         -5.44900        0.70200       21.00100
H         -5.98300        0.83700       21.77500
C         -4.99200        1.78400       20.27600
H         -5.19200        2.66800       20.56200
C         -4.25000        1.58200       19.14700
H         -3.95300        2.33100       18.64400
C         -3.92200        0.29600       18.71700
H         -3.40200        0.17400       17.93200
C         -5.33900       -3.26100       18.28400
C         -6.60700       -2.69300       18.40500
H         -6.71000       -1.86900       18.86600
C         -7.71800       -3.31800       17.86000
H         -8.57800       -2.92600       17.95300
C         -7.57300       -4.52300       17.17300
H         -8.33300       -4.94500       16.79100
C         -6.32700       -5.10500       17.04800
H         -6.22700       -5.93100       16.58800
C         -5.21500       -4.47300       17.60200
H         -4.35900       -4.87400       17.51500
C         -2.64800       -2.41100       17.70800
H         -2.66200       -3.24700       17.17800
H         -2.88600       -1.65900       17.10800
C         -1.25300       -2.18800       18.29100
H         -1.18700       -1.27600       18.67000
H         -0.57100       -2.27900       17.57900
P         -0.95600       -3.44000       19.60900
C          0.58000       -2.87200       20.41000
C          1.38100       -1.86500       19.87500
H          1.13900       -1.45200       19.05500
C          2.53800       -1.46300       20.54000
H          3.08300       -0.78000       20.16600
C          2.89900       -2.04700       21.73700
H          3.67900       -1.75500       22.19400
C          2.12000       -3.06500       22.26900
H          2.37900       -3.48700       23.07900
C          0.96200       -3.46700       21.62000
H          0.42400       -4.15200       21.99900
C         -0.45400       -4.90900       18.65300
C          0.87400       -5.19700       18.36600
H          1.56500       -4.65500       18.72700
C          1.19400       -6.27600       17.55200
H          2.10500       -6.48300       17.38000
C          0.19200       -7.05300       16.98900
H          0.41700       -7.76500       16.40100
C         -1.12800       -6.79400       17.28100
H         -1.81500       -7.33700       16.91200
C         -1.45300       -5.73000       18.12200
H         -2.36200       -5.56100       18.33600
C         -3.99100       -3.96100       22.81100
C         -4.66600       -4.62000       21.75200
C         -3.78700       -5.60300       21.19200
C         -2.55600       -5.56700       21.94200
C         -2.67400       -4.54200       22.93700
C         -4.58000       -2.92900       23.73600
H         -5.18900       -2.34900       23.23300
H         -3.86000       -2.38900       24.12300
H         -5.07400       -3.37800       24.45300
C         -6.11900       -4.45700       21.40000
H         -6.64800       -5.13000       21.87800
H         -6.23700       -4.57500       20.43400
H         -6.41900       -3.56100       21.65900
C         -4.18200       -6.68200       20.23800
H         -4.70200       -7.36300       20.71300
H         -3.37800       -7.09100       19.85600
H         -4.72600       -6.29900       19.51800
C         -1.43500       -6.54500       21.81000
H         -0.65700       -6.22100       22.31100
H         -1.19500       -6.64300       20.86400
H         -1.71500       -7.41400       22.16700
C         -1.70400       -4.23300       24.04000
H         -2.02200       -4.63400       24.87600
H         -1.63400       -3.26100       24.15000
H         -0.82400       -4.60000       23.81500
Ru         0.93600        4.78500       20.85700
C          1.77700        6.34300       21.40800
O          2.23800        7.29000       21.86100
P         -0.13600        6.15500       19.32300
C         -0.84400        7.69000       19.97900
C         -1.85300        7.59000       20.93100
H         -2.18100        6.73200       21.17600
C         -2.38500        8.71900       21.52700
H         -3.06600        8.63700       22.18600
C         -1.92100        9.96600       21.15600
H         -2.26900       10.74500       21.57400
C         -0.95900       10.08300       20.18500
H         -0.67000       10.94600       19.91500
C         -0.40000        8.95400       19.59000
H          0.27500        9.04300       18.92800
C         -1.45300        5.50000       18.24200
C         -1.46100        4.14400       17.92200
H         -0.85900        3.55300       18.36000
C         -2.34200        3.65000       16.96500
H         -2.32800        2.72800       16.73500
C         -3.24300        4.50800       16.34900
H         -3.83800        4.17700       15.68700
C         -3.27100        5.84700       16.70100
H         -3.91100        6.42500       16.30300
C         -2.37600        6.34900       17.62700
H         -2.38900        7.27400       17.84600
C          1.12600        6.70200       18.10900
H          0.68800        7.12900       17.33000
H          1.73700        7.36000       18.52500
C          1.90300        5.46900       17.66400
H          2.67300        5.74100       17.10600
H          1.31800        4.88100       17.12200
P          2.49600        4.56000       19.14300
C          4.09700        5.30900       19.58000
C          4.69100        6.32400       18.83200
H          4.27100        6.63700       18.03900
C          5.90000        6.88100       19.24900
H          6.30000        7.57500       18.73800
C          6.51900        6.43300       20.39700
H          7.34600        6.81200       20.66900
C          5.93700        5.43200       21.15200
H          6.36300        5.12000       21.94100
C          4.72500        4.88400       20.75200
H          4.31700        4.21000       21.28400
C          2.90700        2.91300       18.46700
C          4.16800        2.33000       18.63300
H          4.84600        2.80400       19.10000
C          4.44300        1.06500       18.12400
H          5.30300        0.68100       18.24500
C          3.45900        0.36300       17.43800
H          3.64400       -0.50000       17.08800
C          2.20400        0.93100       17.26500
H          1.52900        0.45100       16.80000
C          1.92900        2.19200       17.76800
H          1.06800        2.57300       17.63800
C         -0.16800        4.48300       22.77700
C         -0.84500        3.70200       21.78600
C          0.06700        2.72500       21.28700
C          1.31100        2.86600       22.01100
C          1.15900        3.93800       22.93200
C         -0.75500        5.56100       23.64600
H         -1.54100        5.94500       23.20400
H         -0.08700        6.26300       23.79100
H         -1.01900        5.17800       24.50800
C         -2.30000        3.78200       21.43300
H         -2.39900        3.81700       20.45900
H         -2.68800        4.59100       21.82900
H         -2.76500        2.99300       21.78100
C         -0.28200        1.56000       20.40200
H         -0.45800        0.77100       20.95600
H          0.46600        1.37400       19.79700
H         -1.08100        1.77600       19.87800
C          2.46400        1.91000       21.94300
H          3.25100        2.31700       22.36400
H          2.66500        1.70500       21.00600
H          2.23300        1.08400       22.41600
C          2.15400        4.37200       23.97200
H          1.96600        3.91000       24.81600
H          2.08300        5.34000       24.10800
H          3.05900        4.14900       23.67100
Cl        -3.06000       10.60200       24.39800
Cl        -0.18900        4.94700       32.19500
Cl        -6.22400        2.93900       23.89400
Cl        -1.16300        0.41500       15.96700
O         -5.02500        8.00300       24.74900
H         -4.27500        8.32700       24.46400
H         -4.99600        7.26200       24.20000
O         -4.13800        5.32500       23.86900
O          5.08500       -0.18100       23.77800
