176
C:\Users\Javier\OneDrive - Universitat de Barcelona\Tesi\4 - Contribucions\Treballs\3-PhD\chapter_1\cif\pc2p\VUFNUH.pc2p.pdb
F         16.39300        7.61500        0.40100
F         16.48400        5.74000        1.38100
F         17.63600        6.09000       -0.40100
C         17.60900       10.57200        4.40900
C         16.76900       11.04900        5.42900
C         15.85700       12.07400        5.19600
C         15.75200       12.67400        3.95400
C         16.57900       12.20700        2.93000
C         17.48300       11.19100        3.16300
C         16.43600       12.82700        1.58600
C         14.99700       12.58300        6.31100
C         19.12600        8.52900        3.44000
C         18.12300        8.06400        2.58800
C         18.37300        7.11900        1.59100
C         19.65100        6.61900        1.39800
C         20.66200        7.07100        2.22100
C         20.40400        7.98900        3.23500
C         17.23700        6.63900        0.74200
C         22.05700        6.54800        2.07800
B         18.84300        9.54200        4.69600
F         15.47900       13.63500        6.89000
F         14.82000       11.70700        7.27300
F         13.79400       12.91900        5.92400
F         16.62100       14.13600        1.58500
F         15.24100       12.64900        1.04400
F         17.29400       12.35700        0.68800
F         22.38400        5.71200        3.05200
F         22.96600        7.51900        2.09600
F         22.23600        5.89000        0.94700
H         16.82200       10.67200        6.27900
H         15.14400       13.35300        3.78500
H         18.02700       10.92400        2.46400
H         17.25700        8.40800        2.67500
H         19.83000        6.00000        0.73600
H         21.10800        8.25200        3.78900
P          7.98400        9.33700        4.16000
N          7.96700       12.58300        4.21900
Rh         9.35800       10.97300        4.69600
C          8.54700        7.73300        4.73600
C          6.13300        9.36600        4.85400
C          6.01100        9.25300        6.33000
C          6.38300       10.61400        6.96100
C          4.53700        8.92400        6.68500
C          7.30800        9.20900        2.63900
C          7.75100        9.47000        1.32200
C          8.47800       10.71400        1.11000
C          6.77500        9.24200        0.23900
H          5.73400       10.21200        4.58700
H          5.64700        8.62400        4.44800
H          6.60700        8.54200        6.66500
H          6.51900       10.49700        7.90600
H          7.19200       10.94500        6.57100
H          5.67700       11.24800        6.81300
H          4.47000        8.79000        7.63000
H          3.96600        9.65100        6.42200
H          4.27400        8.11800        6.22500
H          8.45200        8.79100        1.17400
H          8.70300       10.78600        0.17700
H          9.27600       10.70600        1.64400
H          7.91900       11.45200        1.37100
H          7.17900        8.77000       -0.50000
H          6.46100       10.10200       -0.06400
H          6.03600        8.73100        0.58400
H          8.38300       13.36600        4.26200
H          7.28400       12.59000        4.78200
H          7.64600       12.47700        3.40400
H          6.51100        9.75600        2.70500
H          7.05100        8.27500        2.60300
H          7.95900        7.44300        5.42500
H          8.51300        7.12100        4.01000
F         14.77200       13.86900        6.24600
F         15.51200       12.38200        7.49700
F         13.82500       12.03000        6.34700
F         15.85300       13.99900        1.61000
F         15.72100       12.10800        0.74800
F         17.58000       13.02900        0.97500
F         22.19000        5.32500        2.57700
F         22.94700        7.30600        2.70100
F         22.44500        6.48000        0.80800
C          6.91100        8.64700        5.39700
C          5.92900        9.65500        5.87700
C          6.47400       10.29300        7.17900
C          4.59200        8.93200        6.19700
C          7.13500        9.46000        2.37400
C          8.03500        9.62200        1.27900
C          8.56900       10.96800        1.06100
C          7.63900        9.00300       -0.00200
H          7.43500        8.32300        6.14400
H          6.43400        7.90000        4.99700
H          5.79300       10.34400        5.19400
H          5.94000       11.06500        7.40800
H          7.38600       10.56200        7.04800
H          6.43400        9.65100        7.89300
H          3.89800        9.58600        6.31300
H          4.68200        8.42000        7.00600
H          4.35500        8.34400        5.47900
H          8.82700        9.09600        1.53100
H          9.26800       10.92400        0.40000
H          8.92800       11.31100        1.88800
H          7.86800       11.54500        0.74400
H          8.12900        8.18500       -0.15200
H          7.81400        9.62000       -0.72100
H          6.69700        8.81300        0.03600
H          6.53200       10.22300        2.36300
H          6.62500        8.64400        2.23500
C          8.79100        7.73300        4.11500
H          8.27500        7.11900        4.62300
H          8.82700        7.44700        3.21000
F         21.29300        7.61500        8.99100
F         21.20300        5.74000        8.01100
F         20.05000        6.09000        9.79300
C         20.07700       10.57200        4.98300
C         20.91700       11.04900        3.96300
C         21.82900       12.07400        4.19600
C         21.93400       12.67400        5.43800
C         21.10700       12.20700        6.46200
C         20.20400       11.19100        6.22900
C         21.25100       12.82700        7.80600
C         22.68900       12.58300        3.08100
C         18.56100        8.52900        5.95200
C         19.56400        8.06400        6.80400
C         19.31300        7.11900        7.80100
C         18.03500        6.61900        7.99400
C         17.02500        7.07100        7.17100
C         17.28200        7.98900        6.15700
C         20.44900        6.63900        8.65000
C         15.62900        6.54800        7.31400
F         22.20700       13.63500        2.50200
F         22.86600       11.70700        2.11900
F         23.89200       12.91900        3.46800
F         21.06600       14.13600        7.80700
F         22.44500       12.64900        8.34800
F         20.39300       12.35700        8.70400
F         15.30200        5.71200        6.34000
F         14.72100        7.51900        7.29600
F         15.45000        5.89000        8.44500
H         20.86500       10.67200        3.11200
H         22.54200       13.35300        5.60700
H         19.65900       10.92400        6.92800
H         20.42900        8.40800        6.71700
H         17.85600        6.00000        8.65600
H         16.57800        8.25200        5.60300
P         10.73200        9.33700        5.23200
C         10.17000        7.73300        4.65600
C         12.58300        9.36600        4.53800
C         12.70500        9.25300        3.06200
C         12.33300       10.61400        2.43100
C         14.17900        8.92400        2.70700
C         11.40800        9.20900        6.75300
C         10.96500        9.47000        8.07000
C         10.23800       10.71400        8.28200
C         11.94100        9.24200        9.15300
H         12.98200       10.21200        4.80500
H         13.07000        8.62400        4.94400
H         12.10900        8.54200        2.72700
H         12.19700       10.49700        1.48600
H         11.52400       10.94500        2.82100
H         13.03900       11.24800        2.57900
H         14.24600        8.79000        1.76200
H         14.75100        9.65100        2.97000
H         14.44200        8.11800        3.16700
H         10.26400        8.79100        8.21800
H         10.01400       10.78600        9.21500
H          9.44100       10.70600        7.74800
H         10.79700       11.45200        8.02100
H         11.53800        8.77000        9.89200
H         12.25500       10.10200        9.45600
H         12.68000        8.73100        8.80800
H         12.20500        9.75600        6.68700
H         11.66500        8.27500        6.78900
H         10.75700        7.44300        3.96700
H         10.20300        7.12100        5.38200
N         10.74900       12.58300        5.17300
H         10.33300       13.36600        5.13000
H         11.43200       12.59000        4.61000
H         11.07000       12.47700        5.98800
