146
C:\Users\Javier\OneDrive - Universitat de Barcelona\Tesi\4 - Contribucions\Treballs\3-PhD\chapter_1\cif\pc2p\VUFZUT.pc2p.pdb
Pd         9.80500       13.70200       11.42000
S          7.90200       13.17100       12.72800
S         10.17400       11.44900       10.69200
P         11.70700       14.35400       10.36000
P          9.53300       15.87100       12.03500
C          6.72900       12.41700       11.66200
C          6.84500       12.40500       10.26600
H          7.60000       12.81100        9.85500
C          5.87100       11.81000        9.47500
H          5.97300       11.79900        8.53100
C          4.74500       11.22800       10.05600
H          4.07800       10.82500        9.51200
C          4.61000       11.24400       11.43700
H          3.84400       10.85200       11.84100
C          5.58900       11.82800       12.23400
H          5.48500       11.82900       13.17900
C         11.13400       10.71600       11.98300
C         10.84500       10.90800       13.34600
H         10.13100       11.48100       13.60100
C         11.59400       10.26400       14.32300
H         11.39900       10.41700       15.23900
C         12.62600        9.39900       13.97800
H         13.13400        8.96200       14.65200
C         12.90200        9.18400       12.63800
H         13.59400        8.58100       12.39100
C         12.17800        9.84200       11.64700
H         12.39300        9.69700       10.73300
C         11.78000       16.20000       10.42300
H         12.72700       16.48800       10.41400
H         11.34200       16.57000        9.61600
C         11.09600       16.76600       11.66900
H         10.90000       17.72600       11.52800
H         11.70800       16.68800       12.44400
C         11.90800       14.00900        8.54600
H         12.52000       14.71000        8.18200
C         10.57100       14.16500        7.81900
H         10.69600       13.98700        6.86400
H         10.23900       15.08000        7.94000
H          9.92200       13.53100        8.18800
C         12.54600       12.65100        8.22500
H         12.61300       12.54200        7.25400
H         11.99100       11.93400        8.59600
H         13.44200       12.61000        8.62100
C         13.26100       13.73900       11.13800
H         13.33700       12.76900       10.90500
C         13.19600       13.82300       12.66900
H         14.01400       13.44300       13.05200
H         12.42000       13.31900       12.99100
H         13.11200       14.76100       12.94100
C         14.51400       14.42600       10.59300
H         15.31100       13.99800       10.96900
H         14.50300       15.37300       10.84400
H         14.53100       14.34800        9.61600
C          8.22100       16.81100       11.14300
H          8.28700       17.76400       11.43900
C          8.44000       16.78800        9.62800
H          7.70200       17.25700        9.18500
H          8.47200       15.86000        9.31600
H          9.28600       17.23400        9.41300
C          6.81500       16.32900       11.48100
H          6.15800       16.89100       11.02100
H          6.67200       16.38700       12.44900
H          6.70900       15.39800       11.19000
C          9.20300       16.16500       13.82600
H          8.30200       15.78000       14.02800
C         10.21800       15.42500       14.70000
H          9.97700       15.53400       15.64300
H         11.11300       15.79400       14.54600
H         10.21300       14.47200       14.47000
C          9.14600       17.66100       14.16400
H          8.96900       17.77400       15.12200
H          8.42900       18.08500       13.64700
H         10.00300       18.08100       13.93900
Pd         6.80900        5.54800       11.26000
S          6.88400        4.50700       13.40000
S          5.78700        3.67900       10.16100
P          6.58000        6.72000        9.33100
P          7.73300        7.41600       12.17400
C          7.90700        3.08700       13.26700
C          7.90400        2.14900       14.31300
H          7.30900        2.26500       15.04400
C          8.75700        1.05600       14.29300
H          8.73800        0.43200       15.00900
C          9.64100        0.86500       13.23600
H         10.23200        0.12100       13.22900
C          9.64400        1.78100       12.19000
H         10.24100        1.65700       11.46100
C          8.78600        2.87500       12.19800
H          8.79700        3.48400       11.46900
C          4.06600        3.91100       10.52200
C          3.59800        4.08800       11.82900
H          4.21700        4.14500       12.54800
C          2.23400        4.18100       12.08600
H          1.92800        4.30200       12.97800
C          1.32000        4.09900       11.05300
H          0.38900        4.14800       11.23400
C          1.76600        3.94500        9.75800
H          1.13700        3.90000        9.04700
C          3.13300        3.85600        9.47900
H          3.42900        3.75800        8.58100
C          7.43700        8.34400        9.55300
H          8.37300        8.26200        9.24100
H          6.98900        9.02600        8.99300
C          7.43500        8.81400       11.01600
H          6.56300        9.23300       11.22500
H          8.14000        9.49900       11.14100
C          7.34800        6.07900        7.76200
H          7.53300        6.87300        7.18200
C          8.69900        5.42600        8.07100
H          9.10400        5.10500        7.23900
H          8.56600        4.67200        8.68200
H          9.29200        6.08400        8.49000
C          6.46700        5.12400        6.94900
H          6.95200        4.83200        6.14900
H          5.64500        5.58500        6.68200
H          6.24100        4.34300        7.49600
C          4.82400        7.07800        8.89400
H          4.42500        6.22000        8.56900
C          4.01400        7.50500       10.12900
H          3.07500        7.62500        9.87800
H          4.37000        8.34900       10.47700
H          4.08200        6.81300       10.82000
C          4.67500        8.09900        7.75600
H          3.72600        8.20800        7.53600
H          5.15900        7.78000        6.96600
H          5.04500        8.96000        8.03900
C          9.55700        7.39900       12.43900
H          9.83400        8.32800       12.68500
C         10.29100        7.02600       11.14800
H         11.24700        6.91900       11.33500
H         10.16500        7.73600       10.48500
H          9.93000        6.18500       10.79700
C          9.97900        6.47400       13.58300
H         10.95200        6.51700       13.69500
H          9.71400        5.55400       13.37400
H          9.54200        6.76100       14.41300
C          6.98600        7.93200       13.77700
H          7.21500        7.22700       14.45000
C          5.45600        7.96800       13.66500
H          5.06900        8.19500       14.53700
H          5.12800        7.08800       13.38200
H          5.19300        8.64200       13.00400
C          7.55000        9.25800       14.30300
H          7.08200        9.50800       15.12800
H          7.42200        9.95800       13.63000
H          8.50700        9.15600       14.48900
