73
C:\Users\Javier\OneDrive - Universitat de Barcelona\Tesi\4 - Contribucions\Treballs\3-PhD\chapter_1\cif\pc2p\VUFZED.pc2p.pdb
Pd         7.74800        2.86200        4.72800
S          6.67700        1.52600        3.12700
P          8.52600        3.81500        6.63500
P          5.65100        3.71400        5.29200
C          9.67600        2.37200        4.22100
C         10.15100        1.05600        4.17100
C          9.20500       -0.12200        4.27600
H          9.67800       -0.90900        4.64800
H          8.44700        0.10000        4.87400
C          8.70200       -0.42400        2.88800
C          7.64500        0.30200        2.31100
C         10.58000        3.39300        3.88900
H         10.27300        4.29100        3.88200
C         11.91000        3.13600        3.57000
H         12.49400        3.84900        3.33800
C         12.37700        1.82800        3.59400
H         13.29000        1.64200        3.41200
C         11.50000        0.80300        3.88500
H         11.81600       -0.09200        3.89200
C          9.36100       -1.38800        2.11200
H         10.08700       -1.86800        2.49300
C          8.98800       -1.66200        0.81000
H          9.46100       -2.31000        0.30200
C          7.91400       -0.98000        0.25400
H          7.62500       -1.17900       -0.62900
C          7.26800       -0.00500        0.99800
H          6.54500        0.46900        0.60400
C          7.05500        4.24900        7.65400
H          6.78300        3.45600        8.18200
H          7.30500        4.96400        8.29200
C          5.86700        4.72100        6.81700
H          6.00200        5.66900        6.56500
H          5.04300        4.66700        7.36200
C          9.45800        2.71900        7.80300
H          9.39500        3.13100        8.71300
C          8.80600        1.33600        7.88800
H          9.26600        0.79900        8.56500
H          8.87000        0.89100        7.01700
H          7.86300        1.43400        8.13400
C         10.94700        2.58800        7.46600
H         11.37200        1.97000        8.09500
H         11.37500        3.46700        7.53000
H         11.04700        2.24300        6.55300
C          9.56000        5.33700        6.52500
H         10.42800        5.06800        6.10700
C          8.92200        6.36700        5.59700
H          9.51500        7.14200        5.51300
H          8.06000        6.65200        5.96700
H          8.78100        5.96700        4.71300
C          9.89800        5.96800        7.87800
H         10.52300        6.71100        7.74400
H         10.31000        5.29400        8.45800
H          9.07700        6.30200        8.29600
C          4.37500        2.44300        5.67200
H          4.18100        1.96500        4.81600
C          4.93400        1.40600        6.63700
H          4.30400        0.66000        6.71500
H          5.06600        1.81700        7.51700
H          5.79300        1.07600        6.29900
C          3.04200        2.99000        6.18500
H          2.40900        2.25100        6.30200
H          2.68000        3.63100        5.53700
H          3.18300        3.43800        7.04400
C          4.82100        4.88900        4.13300
H          4.08800        5.34600        4.63400
C          5.78700        5.96000        3.64200
H          5.31800        6.56800        3.03300
H          6.53200        5.53500        3.16900
H          6.13100        6.46500        4.40700
C          4.19100        4.17200        2.93500
H          3.76400        4.83100        2.34700
H          3.51800        3.53400        3.25300
H          4.88600        3.69300        2.43800
