97
C:\Users\Javier\OneDrive - Universitat de Barcelona\Tesi\4 - Contribucions\Treballs\3-PhD\chapter_1\cif\pc2p\VUFZIH.pc2p.pdb
Pd         4.02300        7.66300        2.39900
P          3.01300        9.04000        3.92200
P          4.06300        9.51200        0.97200
S          4.76800        6.14500        0.69000
C          3.17800        5.63500        0.04200
C          3.04700        5.40600       -1.33000
H          3.79400        5.55300       -1.90000
C          1.84200        4.96800       -1.87700
H          1.78400        4.80700       -2.81200
C          0.72800        4.76500       -1.08000
H         -0.09500        4.47700       -1.45900
C          0.84400        4.99300        0.30200
H          0.09200        4.86500        0.86600
C          2.06300        5.40600        0.84700
C          4.08800        6.10200        3.72000
O          3.07300        5.48500        4.04000
C          5.37200        5.65500        4.33600
C          5.32300        4.92800        5.53900
H          4.48700        4.74600        5.95100
C          6.50200        4.47400        6.11900
H          6.47200        3.98300        6.93300
C          7.70800        4.73300        5.51800
H          8.51100        4.43300        5.92600
C          7.76600        5.43000        4.31900
H          8.60500        5.58100        3.89800
C          6.58900        5.91100        3.72200
H          6.62500        6.40300        2.91200
C          2.46200       10.55600        3.02800
H          1.57000       10.39100        2.63100
H          2.37300       11.30000        3.67600
C          3.43500       10.96700        1.92100
H          4.20200       11.44800        2.32300
H          2.97800       11.58800        1.30100
C          3.96000        9.66000        5.37400
H          3.36600       10.27400        5.89200
C          5.17900       10.45700        4.92000
H          5.73000       10.68200        5.69900
H          4.88400       11.28000        4.47900
H          5.70500        9.91900        4.29200
C          4.37100        8.50900        6.29500
H          4.99700        7.92100        5.82400
H          3.57700        8.00000        6.55400
H          4.80500        8.87000        7.09500
C          1.47800        8.30100        4.63200
H          1.74400        7.43200        5.04500
C          0.47200        7.97300        3.52900
H         -0.24700        7.41800        3.89600
H          0.92500        7.48700        2.80800
H          0.09400        8.80500        3.17400
C          0.82500        9.13300        5.73700
H          0.57800       10.01100        5.38000
H          1.45600        9.24500        6.47700
H          0.02200        8.67400        6.05900
C          5.68900       10.11000        0.33200
H          5.55800       11.04200       -0.00800
C          6.72900       10.16500        1.45400
H          6.83300        9.27400        1.84600
H          6.43300       10.79400        2.14400
H          7.58900       10.46300        1.08900
C          6.21500        9.25900       -0.82900
H          7.07700        9.61500       -1.13000
H          5.57300        9.28500       -1.56900
H          6.33000        8.33400       -0.52900
C          2.99500        9.36500       -0.52000
H          3.36900        8.62000       -1.07200
C          2.97900       10.60900       -1.40500
H          2.43400       10.43700       -2.20200
H          3.89500       10.82800       -1.67800
H          2.59800       11.36100       -0.90500
C          1.58200        8.95900       -0.12700
H          1.15300        9.69400        0.36000
H          1.61900        8.16400        0.44500
H          1.06400        8.75600       -0.93500
S          3.66100        5.81800        3.87100
C          5.30300        5.41800        4.46000
C          5.44200        4.74600        5.67600
H          4.66400        4.49100        6.15700
C          6.70200        4.44400        6.19400
H          6.76700        4.01000        7.03700
C          7.85500        4.77300        5.50100
H          8.70800        4.51400        5.83200
C          7.73100        5.47900        4.29600
H          8.51100        5.73800        3.81700
C          6.46900        5.81500        3.79900
C          4.34100        6.31600        0.88700
O          5.46700        6.02500        0.55200
C          3.25600        5.74800        0.04200
C          3.43100        5.50200       -1.34900
H          4.26400        5.63500       -1.78600
C          2.33000        5.06500       -2.00900
H          2.39500        4.92600       -2.94700
C          1.16100        4.81700       -1.42000
H          0.44700        4.45700       -1.93400
C          0.96900        5.07400       -0.07900
H          0.11600        4.94300        0.31600
C          2.06100        5.52900        0.70100
H          1.97300        5.69200        1.63600
