153
C:\Users\Javier\OneDrive - Universitat de Barcelona\Tesi\4 - Contribucions\Treballs\3-PhD\chapter_1\cif\pc2p\VUGMOB.pc2p.pdb
Pd        19.06900        4.18700       13.20400
P         20.93400        4.85700       12.12600
P         20.03300        5.06300       15.11700
S         17.40500        3.30600       14.48800
C         18.18700        3.63700       11.45800
H         18.67200        3.86700       10.67400
C         17.04400        3.01000       11.24000
H         16.82000        2.90400       10.32400
C         16.07300        2.45500       12.17000
C         16.14100        2.54400       13.57600
C         15.11400        1.98500       14.34500
H         15.15000        2.04800       15.29300
C         14.05600        1.34400       13.74800
H         13.36800        0.96700       14.28200
C         13.99200        1.24800       12.37400
H         13.26000        0.80000       11.96300
C         14.97600        1.79500       11.60800
H         14.91500        1.72600       10.66300
C         21.96000        5.87600       13.25100
H         22.91300        5.75800       13.00900
H         21.73000        6.83000       13.11700
C         21.77400        5.52100       14.74400
H         22.03500        6.29800       15.30000
H         22.36800        4.76500       14.97800
C         20.76600        5.89600       10.61700
H         20.41300        5.30800        9.89000
C         19.74500        7.00600       10.83400
H         19.59300        7.48000        9.98900
H         20.08300        7.63600       11.50400
H         18.90000        6.61800       11.14700
C         22.11500        6.45900       10.13300
H         21.98600        6.92600        9.28200
H         22.75100        5.72200       10.00900
H         22.46600        7.08400       10.80100
C         22.02300        3.45900       11.62100
H         22.91300        3.84200       11.37600
C         22.22800        2.52100       12.79900
H         22.85800        1.81500       12.54800
H         21.37100        2.12000       13.05100
H         22.58700        3.02600       13.55800
C         21.49700        2.70100       10.41100
H         22.10700        1.96300       10.19600
H         21.43700        3.30800        9.64300
H         20.60900        2.33900       10.61200
C         19.25200        6.63500       15.69300
H         19.87400        7.07000       16.34400
C         19.04700        7.59100       14.52400
H         18.62000        8.41500       14.84400
H         18.47500        7.16700       13.85200
H         19.91600        7.80900       14.12400
C         17.93700        6.37600       16.40200
H         17.53000        7.23000       16.65800
H         18.09900        5.83800       17.20500
H         17.33300        5.89200       15.80200
C         20.13100        3.99300       16.61200
H         19.19000        3.82300       16.90300
C         20.72900        2.63200       16.25400
H         20.66400        2.03200       17.02700
H         21.67200        2.74400       16.00800
H         20.23700        2.24500       15.50000
C         20.84400        4.63600       17.79600
H         20.82400        4.02500       18.56100
H         20.39100        5.47300       18.03400
H         21.77400        4.82500       17.55300
Pd        12.15100        7.69400       13.50600
P         12.56100        6.03800       11.99900
S         11.84100        9.35200       14.92500
C         12.28500        8.98300       11.85300
H         12.36200        8.55600       11.00700
C         12.27500       10.31700       11.82400
H         12.31900       10.70300       10.95600
C         12.20300       11.26500       12.91700
C         12.02400       10.93700       14.28100
C         11.96300       11.98900       15.20400
H         11.84100       11.78600       16.12500
C         12.07500       13.28200       14.82800
H         12.03100       13.96900       15.48200
C         12.25300       13.61500       13.48100
H         12.33300       14.52100       13.20700
C         12.30800       12.61400       12.58200
H         12.42400       12.84100       11.66800
C         12.08200        4.43000       12.74500
H         11.14700        4.22600       12.50300
H         12.65800        3.71500       12.37000
C         14.32400        5.82900       11.52400
H         14.43700        4.91100       11.14400
C         15.21700        5.94400       12.75400
H         16.14700        5.77500       12.49800
H         14.93600        5.28500       13.42200
H         15.14000        6.84500       13.13000
C         14.76800        6.83900       10.46300
H         15.72700        6.72900       10.28800
H         14.59800        7.74800       10.78700
H         14.26600        6.68600        9.63600
C         11.63800        6.08600       10.40700
H         12.00500        6.84700        9.87000
C         10.15300        6.36500       10.65200
H          9.70300        6.52200        9.79500
H         10.05700        7.15900       11.21700
H          9.74300        5.59400       11.09900
C         11.82400        4.81700        9.59100
H         11.35300        4.90500        8.73800
H         11.46100        4.05400       10.08800
H         12.77800        4.67300        9.42600
Cl        10.46600       14.49200       18.06600
C         11.48700       15.77100       18.51300
H         12.16700       15.35000       19.10100
H         10.93200       16.33100       19.11800
Cl        12.36000       16.88600       17.57300
Cl        10.65500       14.35200       18.28000
C         11.21300       15.94300       18.22300
H         11.13500       16.36800       19.11200
H         10.68700       16.47000       17.57300
Cl        12.83300       15.88000       17.74900
P         11.74000        6.03800       15.01400
C         12.21900        4.43000       14.26800
H         13.15500        4.22600       14.50900
H         11.64400        3.71500       14.64300
C          9.97700        5.82900       15.48900
H          9.86500        4.91100       15.86900
C          9.08500        5.94400       14.25900
H          8.15400        5.77500       14.51500
H          9.36500        5.28500       13.59100
H          9.16100        6.84500       13.88300
C          9.53300        6.83900       16.55000
H          8.57400        6.72900       16.72400
H          9.70300        7.74800       16.22600
H         10.03500        6.68600       17.37600
C         12.66300        6.08600       16.60600
H         12.29700        6.84700       17.14200
C         14.14900        6.36500       16.36100
H         14.59800        6.52200       17.21800
H         14.24400        7.15900       15.79500
H         14.55800        5.59400       15.91400
C         12.47700        4.81700       17.42100
H         12.94800        4.90500       18.27500
H         12.84100        4.05400       16.92400
H         11.52300        4.67300       17.58700
S         12.46100        9.35200       12.08700
C         12.01600        8.98300       15.15900
H         11.93900        8.55600       16.00600
C         12.02700       10.31700       15.18800
H         11.98200       10.70300       16.05600
C         12.09900       11.26500       14.09500
C         12.27700       10.93700       12.73200
C         12.33800       11.98900       11.80800
H         12.46000       11.78600       10.88800
C         12.22600       13.28200       12.18400
H         12.27100       13.96900       11.53100
C         12.04900       13.61500       13.53100
H         11.96800       14.52100       13.80500
C         11.99300       12.61400       14.43000
H         11.87700       12.84100       15.34500
