134
C:\Users\Javier\OneDrive - Universitat de Barcelona\Tesi\4 - Contribucions\Treballs\3-PhD\chapter_1\cif\pc2p\VUGMUH.pc2p.pdb
Pd         6.18600       11.01600        3.49800
P          7.61000       10.56100        5.22000
P          7.68300        9.81900        2.18000
S          4.85200       11.53600        1.72200
C          4.91500       12.00600        4.78000
H          5.23000       12.00800        5.67600
C          3.77600       12.63300        4.65200
C          3.01900       12.85500        3.43000
C          3.38400       12.41500        2.15500
C          2.53600       12.63800        1.05800
H          2.78900       12.31000        0.20200
C          1.35600       13.31500        1.18700
H          0.79900       13.45700        0.43000
C          0.97400       13.79600        2.43800
H          0.16000       14.27700        2.53800
C          1.77700       13.56700        3.51900
H          1.50100       13.89400        4.36900
C          3.15100       13.21500        5.92400
H          3.75200       13.05900        6.68400
H          2.29100       12.77700        6.09400
H          3.01200       14.17800        5.81100
C          8.85900        9.33000        4.66000
H          9.68600        9.44400        5.19200
H          8.51300        8.41800        4.82600
C          9.18700        9.47700        3.19300
H          9.61600        8.64600        2.87000
H          9.83400       10.21800        3.07600
C          6.90900        9.79300        6.73400
H          6.37600       10.49900        7.19800
C          5.94600        8.65500        6.39600
H          5.56400        8.29400        7.22300
H          6.43100        7.94600        5.92400
H          5.22500        8.99600        5.82400
C          7.99300        9.32600        7.71800
H          7.57300        9.05100        8.56100
H          8.61800       10.06200        7.89000
H          8.48100        8.56700        7.33500
C          8.60900       11.98000        5.83000
H          9.41500       11.60400        6.28500
C          9.09700       12.82000        4.66200
H          9.70100       13.51800        4.99100
H          8.33000       13.23500        4.21500
H          9.57600       12.24800        4.02600
C          7.87200       12.84500        6.85100
H          8.45300       13.58100        7.13300
H          7.63600       12.29900        7.63000
H          7.05700       13.20500        6.44600
C          7.11200        8.15900        1.58400
H          7.90400        7.67200        1.21800
C          6.55600        7.35300        2.74600
H          6.32000        6.45200        2.43800
H          5.75900        7.79500        3.10100
H          7.23500        7.28800        3.45400
C          6.07700        8.29300        0.47000
H          5.70900        7.41000        0.26000
H          6.50300        8.66900       -0.32800
H          5.35600        8.88600        0.76500
C          8.33300       10.63000        0.66500
H          7.58300       10.65700        0.00400
C          8.72900       12.07100        0.94800
H          8.91200       12.53200        0.10200
H          9.53300       12.08500        1.50700
H          7.99900       12.52400        1.41600
C          9.48600        9.83400        0.01200
H          9.82600       10.33100       -0.76100
H          9.15200        8.96000       -0.28100
H         10.20500        9.70900        0.66300
Pd         0.00000        7.14100        4.81800
P         -0.15800        8.94200        6.23200
C          0.27800       10.48600        5.32900
H         -0.23100       11.24300        5.71200
H          1.24300       10.67400        5.45600
C          0.89500        8.94900        7.73800
H          0.63200        8.15900        8.28900
C          2.37300        8.78300        7.38300
H          2.69900        9.60000        6.94900
H          2.47900        8.02500        6.77400
H          2.88700        8.62100        8.20200
C          0.67700       10.19300        8.59700
H          1.21000       10.12200        9.41600
H         -0.27300       10.26400        8.83000
H          0.95000       10.98900        8.09600
C         -1.87000        9.20200        6.84700
H         -1.92000       10.11200        7.26000
C         -2.82700        9.16100        5.66200
H         -2.73700        8.30200        5.19800
H         -2.61600        9.89000        5.04300
H         -3.74900        9.26100        5.98200
C         -2.27100        8.17400        7.90200
H         -3.21300        8.29900        8.13900
H         -1.71400        8.29000        8.70100
H         -2.14300        7.27100        7.54300
P          0.28000        8.69900        3.15000
C         -0.01800       10.38600        3.85200
H          0.54900       11.04000        3.36900
H         -0.96200       10.63600        3.69800
C          2.01700        8.78100        2.53400
H          2.11000        9.59200        1.95400
C         -0.47900        9.81700        0.67600
H         -0.99500        9.69900       -0.14800
H          0.47900        9.84800        0.45900
H         -0.74200       10.65600        1.11000
C          3.00500        8.90200        3.69300
H          2.93000        8.11200        4.26900
H          2.80400        9.70600        4.21300
H          3.91700        8.96000        3.33800
C         -2.23000        8.52100        1.96200
H         -2.53900        9.34700        2.39000
H         -2.36100        7.76700        2.57300
H         -2.74200        8.36800        1.14100
C         -0.74700        8.64700        1.62100
H         -0.49100        7.81500        1.12700
C          2.33300        7.55000        1.69400
H          3.29300        7.52800        1.49600
H          1.82700        7.58800        0.85600
H          2.08300        6.74400        2.19100
S         -0.03600        5.67900        3.11500
C          0.15000        5.65100        6.21300
H          0.20000        5.96800        7.10800
C          0.19300        4.31900        6.11300
C          0.05000        3.50200        4.90500
C         -0.12000        3.99400        3.59400
C         -0.33300        3.12800        2.52300
H         -0.42900        3.49000        1.65000
C         -0.41400        1.76000        2.68700
H         -0.55100        1.18700        1.94300
C         -0.28600        1.24700        3.95700
H         -0.32100        0.30700        4.09100
C         -0.11300        2.07900        5.02600
H         -0.10800        1.69900        5.89500
C          0.43100        3.50500        7.39300
H          0.62400        4.11400        8.13700
H          1.19000        2.90100        7.26000
H         -0.37100        2.98100        7.60100
