140
C:\Users\Javier\OneDrive - Universitat de Barcelona\Tesi\4 - Contribucions\Treballs\3-PhD\chapter_1\cif\pc2p\VUGNAO.pc2p.pdb
Pd        -2.62500        5.24500       23.95100
S         -2.99900        6.67400       25.78200
P         -2.67000        3.88100       22.13500
P         -2.18900        6.96800       22.45900
C         -3.07300        3.70700       25.25800
C         -4.23200        3.74600       25.99500
C         -5.16400        4.91800       25.97600
C         -4.69800        6.23700       25.98900
C         -2.21100        2.61100       25.43100
H         -1.38000        2.59500       24.97100
C         -2.55300        1.54800       26.26300
H         -1.95400        0.81800       26.37300
C         -3.75200        1.55500       26.92100
H         -4.01500        0.80700       27.44400
C         -4.57100        2.65400       26.82100
H         -5.38200        2.67700       27.31500
C         -6.54500        4.70600       26.01700
H         -6.86900        3.81500       25.95100
C         -7.45700        5.73300       26.14600
H         -8.39200        5.56500       26.15600
C         -6.95100        7.03500       26.26300
H         -7.54800        7.75800       26.40800
C         -5.60500        7.27600       26.16500
H         -5.28600        8.16900       26.21900
C         -2.21300        4.83600       20.62700
H         -1.25400        4.68700       20.43200
H         -2.73400        4.49200       19.85900
C         -2.46300        6.34400       20.76000
H         -3.39600        6.54200       20.49200
H         -1.86200        6.82800       20.13900
C         -4.34300        3.22200       21.72700
H         -4.31000        2.86300       20.79400
C         -5.38100        4.35600       21.75500
H         -6.23400        4.02900       21.39900
H         -5.06400        5.10200       21.20400
H         -5.50700        4.66300       22.67800
C         -4.75200        2.06600       22.66200
H         -5.64600        1.75000       22.41700
H         -4.75700        2.38300       23.58800
H         -4.10900        1.33200       22.57100
C         -1.55500        2.43800       22.08900
H         -1.84900        1.82700       22.82000
C         -0.10300        2.82900       22.40100
H          0.44800        2.02000       22.45800
H         -0.07000        3.30900       23.25500
H          0.24000        3.40800       21.68900
C         -1.61400        1.63500       20.80400
H         -1.01500        0.86300       20.87300
H         -1.33400        2.20000       20.05100
H         -2.53100        1.32400       20.65300
C         -3.23600        8.45200       22.61800
H         -3.05800        8.84100       23.52200
C         -4.72200        8.05900       22.57700
H         -5.27400        8.86300       22.67500
H         -4.91600        7.44000       23.31100
H         -4.92200        7.62600       21.72400
C         -2.97000        9.56000       21.59100
H         -3.57700       10.31200       21.75500
H         -3.11800        9.21300       20.68700
H         -2.04200        9.86700       21.67300
C         -0.46600        7.63300       22.40700
H         -0.38900        8.25700       21.62600
C          0.56200        6.50800       22.23400
H          1.46600        6.88400       22.26900
H          0.42400        6.06900       21.36800
H          0.45100        5.85200       22.95200
C         -0.17300        8.41100       23.67700
H          0.74500        8.75100       23.64800
H         -0.28000        7.82100       24.45200
H         -0.79800        9.16400       23.75200
Pd         0.27200       14.02000       15.31500
S          0.66900       12.53200       13.53000
P          0.25800       15.50700       17.04400
P         -0.41700       12.42100       16.90300
C          0.96300       15.43200       13.98700
C          2.22400       15.26900       13.38200
C          3.02300       14.03900       13.49200
C          2.39400       12.75800       13.44200
C          0.20700       16.56500       13.68100
H         -0.66900       16.65400       14.03700
C          0.72800       17.57900       12.85000
H          0.20400       18.34700       12.65100
C          1.99500       17.45800       12.32300
H          2.36500       18.16100       11.80100
C          2.72400       16.30700       12.56000
H          3.58000       16.21000       12.16300
C          4.42900       14.11900       13.56500
H          4.84400       14.96900       13.64700
C          5.21800       12.97500       13.51700
H          6.16300       13.04800       13.57100
C          4.62600       11.72700       13.39100
H          5.16200       10.94600       13.32800
C          3.25000       11.63800       13.36000
H          2.85700       10.77700       13.27500
C         -0.41800       14.69200       18.55100
H          0.00500       15.09000       19.35100
H         -1.39100       14.86500       18.60200
C         -0.17800       13.17400       18.56100
H         -0.80000       12.75000       19.20000
H          0.74700       12.99400       18.86600
C          1.93300       16.08200       17.56500
H          1.83900       16.51100       18.46300
C          2.89900       14.90200       17.71300
H          3.75800       15.22400       18.06000
H          3.03600       14.47800       16.84100
H          2.52100       14.24800       18.33700
C          2.49800       17.11800       16.62000
H          3.40500       17.35900       16.90400
H          1.92900       17.91600       16.63300
H          2.52600       16.75100       15.71300
C         -0.74300       17.05400       16.90400
H         -0.35300       17.58800       16.15400
C         -2.17400       16.73300       16.52300
H         -2.62100       17.54900       16.21400
H         -2.64800       16.37500       17.30100
H         -2.18000       16.06500       15.80400
C         -0.69300       17.93400       18.15100
H         -1.15700       18.77900       17.97500
H          0.24200       18.11800       18.38400
H         -1.12900       17.46900       18.89500
C          0.59300       10.86100       17.03000
H          0.44100       10.45500       17.93100
C          2.06900       11.20100       16.89400
H          2.60200       10.38300       16.96700
H          2.32800       11.82200       17.60600
H          2.22900       11.61900       16.02200
C          0.14500        9.85400       15.95900
H          0.73100        9.06900       15.98400
H          0.19600       10.27500       15.07400
H         -0.77800        9.57900       16.13500
C         -2.16500       11.83700       16.90400
H         -2.32900       11.38500       16.02500
C         -3.13900       13.00900       17.00500
H         -4.05300       12.68700       16.85300
H         -2.91300       13.68000       16.32700
H         -3.07600       13.41100       17.89600
C         -2.47000       10.80500       18.01900
H         -3.41000       10.53300       17.96500
H         -2.29600       11.21000       18.89500
H         -1.89600       10.02000       17.90600
