99
C:\Users\Javier\OneDrive - Universitat de Barcelona\Tesi\4 - Contribucions\Treballs\3-PhD\chapter_1\cif\pc2p\VUVTIQ.pc2p.pdb
Ru         9.36600       10.00100       14.71000
P         10.10500        7.87400       14.43200
C         11.79900        7.42000       14.97500
C         12.70300        8.45000       15.24700
H         12.40800        9.35300       15.23500
C         14.03600        8.16100       15.53600
H         14.65200        8.86900       15.69600
C         14.46100        6.86000       15.59100
H         15.36800        6.66800       15.79800
C         13.58400        5.83500       15.34800
H         13.88600        4.93600       15.39700
C         12.25400        6.10000       15.03200
H         11.65600        5.38400       14.85400
C          9.09500        6.50100       15.08200
C          8.22500        5.76300       14.28500
H          8.18400        5.93200       13.35000
C          7.41800        4.78400       14.84500
H          6.83400        4.28300       14.28800
C          7.45500        4.53000       16.19600
H          6.90100        3.85700       16.57100
C          8.30300        5.26100       17.00200
H          8.32500        5.09900       17.93800
C          9.12200        6.23100       16.44200
H          9.71400        6.71900       17.00200
C         10.21000        7.54400       12.63000
H         10.70200        6.70100       12.46600
H          9.30300        7.45700       12.24600
C         10.94400        8.71100       11.97900
H         10.80200        8.68800       10.99900
H         11.91500        8.63200       12.15300
P         10.31800       10.31600       12.66000
C         11.77700       11.41800       12.52800
C         13.07300       10.95800       12.79200
H         13.22100       10.03900       12.98000
C         14.14100       11.83700       12.77700
H         15.01800       11.51500       12.94500
C         13.94700       13.17000       12.52300
H         14.68500       13.76700       12.53700
C         12.68100       13.64600       12.24700
H         12.54600       14.56700       12.06000
C         11.60500       12.76800       12.24400
H         10.73600       13.09700       12.04400
C          9.28400       10.97700       11.30600
C          8.04900       11.54900       11.58500
H          7.72700       11.56600       12.47800
C          7.28000       12.09800       10.56900
H          6.43300       12.47800       10.77100
C          7.73900       12.09500        9.26500
H          7.21700       12.48700        8.57500
C          8.95800       11.52100        8.97100
H          9.26900       11.50300        8.07300
C          9.73300       10.96900        9.98400
H         10.57500       10.58300        9.77500
C          7.81000        9.23800       13.76000
C          6.86000        8.75000       13.19400
C          5.86800        8.11200       12.49100
C          5.02700        7.52900       11.86800
C          3.24000        7.16400       10.22700
F          3.44500        8.42500        9.79300
C          4.04000        6.72100       11.24100
C          3.82400        5.35800       11.69100
F          4.62000        4.86700       12.61400
C          2.84900        4.60500       11.14100
F          2.66500        3.36300       11.63100
C          2.01700        5.08500       10.10500
C          0.99900        4.28700        9.49800
F          0.76600        3.04500        9.91500
C          0.23100        4.77900        8.51000
F         -0.71700        4.04500        7.93800
C          0.43900        6.08600        8.03200
F         -0.33700        6.54700        7.04300
C          1.38600        6.86900        8.57300
F          1.55900        8.12300        8.09100
C          2.21200        6.40400        9.61800
C          8.45300       10.30100       16.72400
C          9.88000       10.40800       16.87800
C         10.33600       11.50900       16.10500
C          9.19400       12.11800       15.48600
C          8.04200       11.38800       15.88300
C          7.53100        9.37100       17.44900
H          8.05500        8.67600       17.89800
H          6.91800        8.95400       16.80900
H          7.01500        9.87400       18.11300
C         10.71400        9.60200       17.83400
H         10.83200       10.10400       18.66700
H         11.59000        9.42500       17.43200
H         10.26300        8.75300       18.02400
C         11.72200       12.08500       16.11400
H         11.76500       12.82300       16.75900
H         11.94300       12.42200       15.21900
H         12.36300       11.39000       16.36900
C          9.20800       13.41300       14.73600
H          9.09000       14.15600       15.36500
H          8.47700       13.42000       14.08300
H         10.06400       13.51200       14.27000
C          6.62200       11.72300       15.56900
H          6.16200       10.92200       15.24200
H          6.59600       12.42000       14.88100
H          6.17700       12.04700       16.38000
