95
C:\Users\Javier\OneDrive - Universitat de Barcelona\Tesi\4 - Contribucions\Treballs\3-PhD\chapter_1\cif\pc2p\WAVKIO.pc2p.pdb
Ru         3.22100        2.38100        6.94700
P          3.79600        4.06900        5.51000
C          4.73300        5.50100        6.17600
C          6.11500        5.43800        6.38700
C          6.77800        6.44900        7.05500
C          6.09300        7.54600        7.52100
C          4.74700        7.64300        7.30800
C          4.06200        6.62600        6.65000
C          2.37700        4.86200        4.66000
C          2.45100        5.42600        3.39400
C          1.31300        5.98700        2.81100
C          0.12200        6.00500        3.47800
C          0.04000        5.47500        4.73900
C          1.15500        4.89000        5.31700
C          4.88500        3.42400        4.15400
C          4.75600        1.90200        4.03800
P          4.77100        1.22900        5.75400
C          6.55000        1.39700        6.17700
C          7.53700        0.72300        5.45200
C          8.87700        0.95500        5.72000
C          9.25100        1.85400        6.69000
C          8.29500        2.52600        7.42200
C          6.94600        2.29700        7.17100
C          4.56500       -0.57500        5.58800
C          3.74800       -1.14300        4.61700
C          3.54900       -2.51200        4.57900
C          4.13800       -3.33400        5.51600
C          4.94200       -2.79600        6.48900
C          5.15800       -1.42600        6.51500
C          1.98700        1.83400        5.55100
C          1.17700        1.51000        4.66900
C          0.14500        1.40700        3.75700
N          0.32700        0.91500        2.56000
C         -1.25400        1.85900        4.11800
C          1.57900        2.31500        8.49400
C          0.10800        2.26200        8.20800
C          2.44300        1.18600        8.65700
C          2.04300       -0.26100        8.62600
C          3.72800        1.67900        9.05000
C          4.85900        0.82900        9.51700
C          3.67900        3.10400        9.06500
C          4.74100        4.04900        9.56200
C          2.33500        3.49500        8.72700
C          1.80600        4.88000        8.90600
P          2.14200       -1.82100        0.39600
F          1.54600       -2.94400       -0.54400
F          0.67100       -1.28100        0.67600
F          2.70800       -0.64400        1.34200
F          3.62300       -2.30600        0.13100
F          2.03900       -2.79300        1.64700
F          2.23200       -0.83200       -0.86300
H          6.54300        4.74900        6.05600
H          7.57100        6.38500        7.18200
H          6.52700        8.28000        7.99600
H          4.30700        8.31000        7.60700
H          3.16700        6.66700        6.52400
H          3.26800        5.40100        2.94800
H          1.39900        6.31100        2.01600
H         -0.64000        6.29600        3.11400
H         -0.75600        5.44500        5.16800
H          1.05300        4.50600        6.20600
H          4.66800        3.84900        3.36400
H          5.80900        3.64000        4.42100
H          5.49300        1.57100        3.54300
H          3.96200        1.64300        3.62200
H          7.28100        0.08100        4.76900
H          9.51100        0.49400        5.23300
H         10.19100        2.00100        6.85100
H          8.51400        3.12000        8.08100
H          6.28500        2.76900        7.66700
H          3.36300       -0.56400        3.89800
H          3.07500       -2.89400        3.93100
H          3.98900       -4.23700        5.50900
H          5.26800       -3.32700        7.13200
H          5.70600       -1.11900        7.09700
H          1.12700        0.65600        2.31100
H         -0.27800        0.89500        2.01200
H         -1.68000        1.20500        4.55300
H         -1.71200        2.05900        3.35600
H         -1.20800        2.60200        4.65600
H         -0.18800        3.07300        7.78500
H         -0.33600        2.17800        8.98700
H         -0.10200        1.53700        7.69200
H          2.69000       -0.80600        8.09900
H          1.17200       -0.37300        8.19200
H          1.94800       -0.64200        9.46800
H          5.71700        1.20800        9.37000
H          4.87000       -0.03000        9.07900
H          4.86700        0.77600       10.41100
H          4.91700        4.75900        8.95000
H          5.58900        3.62500        9.80600
H          4.50300        4.46100       10.31800
H          0.98500        5.01300        8.41400
H          2.46000        5.52000        8.67300
H          1.67600        5.01300        9.76400
