111
C:\Users\Javier\OneDrive - Universitat de Barcelona\Tesi\4 - Contribucions\Treballs\3-PhD\chapter_1\cif\pc2p\WAWNIU.pc2p.pdb
Pd        22.24200       12.97400        8.30000
Fe        17.42100       14.45200        7.57800
Fe        18.13800       14.15600        5.05900
Fe        23.15900       17.82500        9.66000
Fe        23.30300       16.84400       12.06700
S         20.11200       13.50200        9.21300
S         19.93100       13.41400        6.29800
S         18.44700       16.01100        6.31100
S         22.56800       15.25700        7.80400
S         23.09200       14.98800       10.70300
S         25.05400       17.17000       10.69900
P         22.07400       10.75000        8.71500
P         24.25800       12.49900        7.38200
O         16.58800       11.67500        8.01700
O         17.29300       15.53100       10.31500
O         14.70300       15.37700        6.83300
O         17.38300       11.33600        4.80200
O         19.87200       14.60300        2.71400
O         15.67300       14.94400        3.67100
O         20.23100       17.83400        9.38100
O         24.13500       18.36400        6.94000
O         23.42600       20.61500       10.59300
O         20.39500       16.63100       12.36100
O         24.22100       15.19300       14.33100
O         23.23200       19.42700       13.45400
C         16.89500       12.76700        7.84700
C         17.35700       15.11800        9.25200
C         15.74900       15.02300        7.12100
C         17.67900       12.43900        4.91200
C         19.18900       14.41900        3.60500
C         16.62000       14.67500        4.25400
C         21.36900       17.87600        9.48000
C         23.73200       18.15900        7.99400
C         23.32300       19.53100       10.23100
C         21.52200       16.71500       12.24400
C         23.89800       15.85200       13.45900
C         23.31000       18.42700       12.90400
C         19.24400       13.75300        7.80600
C         17.38200       17.38600        5.91100
C         17.22600       17.83700        4.59800
H         17.59800       17.33900        3.87900
C         16.53300       19.00900        4.33700
H         16.44000       19.30900        3.44200
C         15.97700       19.74200        5.36800
H         15.49600       20.54100        5.18600
C         16.12800       19.29800        6.66800
H         15.74100       19.79500        7.37800
C         16.83300       18.14000        6.95400
H         16.94200       17.85800        7.85500
C         22.94000       15.90700        9.30000
C         26.18700       18.53500       10.94700
C         27.04800       18.77400        9.87300
H         26.94800       18.28600        9.06500
C         28.05100       19.73000        9.99300
H         28.63700       19.88900        9.26300
C         28.20300       20.44500       11.15800
H         28.89100       21.09500       11.23400
C         27.34900       20.21200       12.21600
H         27.44800       20.70800       13.02100
C         26.34500       19.25000       12.10700
H         25.76600       19.09000       12.84300
C         23.21100        9.94800        7.51600
H         23.34700        9.00000        7.76500
H         22.81700        9.97800        6.60900
C         24.54900       10.68400        7.52600
H         25.10800       10.37400        6.76900
H         25.03100       10.48900        8.36900
C         20.46700        9.93100        8.57500
C         19.90700        9.70900        7.32000
H         20.38200        9.96900        6.54000
C         18.66500        9.11500        7.19800
H         18.29800        8.96000        6.33500
C         17.95900        8.74800        8.31900
H         17.10500        8.33800        8.23100
C         18.49000        8.97500        9.57200
H         18.00000        8.72700       10.34700
C         19.74500        9.56600        9.70700
H         20.10500        9.72100       10.57200
C         22.72100       10.31300       10.35800
C         22.87900        9.00100       10.76200
H         22.64400        8.29600       10.16900
C         23.37800        8.70000       12.02400
H         23.48000        7.79500       12.29300
C         23.72200        9.71700       12.88500
H         24.06000        9.51000       13.74800
C         23.58000       11.02600       12.50200
H         23.82500       11.72500       13.09500
C         23.08000       11.32400       11.24700
H         22.97900       12.23300       10.98600
C         24.38400       12.88900        5.61300
C         23.32300       13.46000        4.93000
H         22.50700       13.63100        5.38400
C         23.44300       13.78600        3.58400
H         22.69800       14.14400        3.11300
C         24.64300       13.58400        2.93300
H         24.73400       13.83200        2.02100
C         25.71200       13.02500        3.60500
H         26.53400       12.88300        3.15200
C         25.58700       12.66600        4.93800
H         26.32000       12.27100        5.39300
C         25.68300       13.34200        8.14200
C         26.20500       14.48900        7.54900
H         25.82200       14.82000        6.74500
C         27.28000       15.15300        8.12300
H         27.64200       15.92700        7.71100
C         27.81900       14.67500        9.30800
H         28.55500       15.12500        9.70700
C         27.29500       13.55600        9.90700
H         27.67100       13.23700       10.71800
C         26.22300       12.88600        9.33800
H         25.85700       12.11900        9.76300
