85
C:\Users\Javier\OneDrive - Universitat de Barcelona\Tesi\4 - Contribucions\Treballs\3-PhD\chapter_1\cif\pc2p\WEDFOA.pc2p.pdb
Pd         0.92400        3.52900        5.53700
P         -0.08500        4.36800        3.65400
P         -0.99600        4.04300        6.65900
O          3.93600        4.95500        5.90700
C         -1.84800        4.60600        4.09100
C         -1.96500        5.13100        5.51500
C         -0.10300        3.42200        2.09900
C         -1.14100        3.34900        1.21800
C         -1.03500        2.56700        0.06500
C          0.05800        1.90400       -0.22000
C          1.06700        2.00800        0.60900
C          1.00200        2.72100        1.78300
C          0.44000        6.03300        3.11800
C         -0.24800        6.76800        2.15800
C          0.19900        7.98400        1.73800
C          1.37000        8.48300        2.23600
C          2.07800        7.79200        3.17700
C          1.59000        6.56000        3.64200
C         -2.14900        2.70800        7.10500
C         -3.48700        2.90900        7.42700
C         -4.25800        1.84400        7.82100
C         -3.75300        0.59100        7.91500
C         -2.45900        0.36100        7.56800
C         -1.65400        1.41100        7.16300
C         -0.77400        5.02700        8.17600
C          0.30300        5.90400        8.20600
C          0.58700        6.64500        9.33900
C         -0.17900        6.49500       10.45000
C         -1.18900        5.61500       10.44800
C         -1.50000        4.88900        9.32200
C          3.69300        3.96800        5.18700
C          2.94400        2.82200        5.65900
C          2.34500        2.75900        6.93000
C          1.94600        1.49900        7.59000
C          1.99300        0.26700        6.95400
C          1.55400       -0.88600        7.56800
C          1.08800       -0.87300        8.81000
C          1.03700        0.29500        9.50100
C          1.43900        1.51100        8.88100
C          4.10900        3.97100        3.77900
C          4.66000        4.99900        3.15200
C          5.11300        5.07400        1.77100
C          5.06300        4.00300        0.89500
C          5.54500        4.08500       -0.39500
C          6.10400        5.26900       -0.82700
C          6.10400        6.34400        0.00000
C          5.64500        6.27100        1.29800
H         -2.31500        5.12100        3.46800
H         -2.13200        3.83300        4.04200
H         -1.59800        5.93800        5.55800
H         -2.87400        5.12100        5.82200
H         -1.89600        3.86500        1.34300
H         -1.73600        2.60800       -0.40200
H          0.14200        1.44500       -0.93000
H          1.59500        1.47700        0.64300
H          1.70600        2.73400        2.33100
H         -0.93700        6.44100        1.76800
H         -0.19100        8.42100        1.11400
H          1.77000        9.14300        1.94100
H          2.85700        8.07500        3.60600
H          1.99700        6.12700        4.28300
H         -3.79600        3.73900        7.24600
H         -5.10700        1.97900        7.99200
H         -4.25200       -0.03100        8.21000
H         -2.12700       -0.34600        7.68200
H         -0.91500        1.25700        7.02700
H          0.91800        5.90700        7.48700
H          1.43500        7.22700        9.40400
H          0.06700        6.97500       11.15000
H         -1.71000        5.53000       10.97700
H         -2.22900        4.39900        9.25500
H          2.99300        2.10500        5.08700
H          2.42700        3.45600        7.56700
H          2.37500        0.18900        6.10900
H          1.63900       -1.66500        7.17700
H          0.93700       -1.57100        9.41600
H          1.23600        0.40800       10.32300
H          1.52400        2.26200        9.31200
H          3.89500        3.20500        3.34100
H          4.71200        5.75000        3.73200
H          4.60700        3.26800        1.19400
H          5.30200        3.20500       -1.14800
H          6.29800        5.31000       -1.63100
H          6.44100        6.94400        0.00000
H          5.68700        6.94400        1.92900
