83
C:\Users\Javier\OneDrive - Universitat de Barcelona\Tesi\4 - Contribucions\Treballs\3-PhD\chapter_1\cif\pc2p\WEJQEH.pc2p.pdb
Ru         1.31300        5.84400        1.37700
P          2.02800        7.30100        3.00900
P          2.46300        4.26100        2.59800
P          6.45800        6.65600       -1.97300
P          6.65200        6.50300       -1.99400
F          6.54400        6.27100       -0.43300
F          5.81300        6.26900       -0.76000
F          6.36800        7.00300       -3.42900
F          7.64900        6.44000       -3.33400
F          5.01000        6.17100       -1.96200
F          5.67000        7.20600       -3.13300
F          5.57000        7.73200       -1.83600
F          6.14300        5.14500       -2.65900
F          7.83600        7.26100       -1.93100
F          7.87800        5.53400       -1.41400
F          7.08500        5.33000       -2.28900
F          7.08900        7.88900       -1.42400
O          2.97200        6.25300        0.06000
O          9.55600        1.56900        4.00900
N         -0.57700        5.54900        2.37600
N         -1.65200        5.79600        1.53700
N          0.63300        4.42600       -0.20300
N         -0.74100        4.35900       -0.28400
N          0.30400        7.32100        0.05600
N         -0.80700        6.82200       -0.58000
C          2.75500        6.37900        4.46000
C          3.36900        5.07300        3.99900
C         -1.09700        5.39000        3.60700
C         -2.48500        5.57400        3.55300
C         -2.80000        5.81600        2.25800
C         -0.40100        5.01500        4.87200
C         -0.95400        3.69800        5.41800
C         -0.59800        6.09800        5.94900
C         -4.12400        6.17600        1.62700
C         -4.12400        7.64800        1.26400
C         -5.27300        5.85700        2.59000
C          1.09500        3.39500       -0.92900
C          0.04000        2.64600       -1.42200
C         -1.10800        3.27700       -1.01500
C          2.54300        3.18700       -1.26300
C          2.86200        3.94400       -2.55100
C          2.84700        1.68900       -1.43500
C         -2.53600        2.88000       -1.20100
C         -3.19500        2.52000        0.10000
C         -2.67100        1.78800       -2.21500
C          0.69200        8.42200       -0.61400
C         -0.17300        8.60700       -1.71200
C         -1.09600        7.59600       -1.66800
C          1.75000        9.34800       -0.15600
C          1.13900       10.67600        0.30500
C          2.79900        9.63800       -1.21700
C         -2.20800        7.25000       -2.60900
C         -1.82400        6.11800       -3.51200
C         -2.62200        8.46200       -3.44000
C          3.39800        8.49100        2.64300
C          3.27900        9.85800        2.87600
C          4.32200       10.72900        2.55500
C          5.46400       10.23400        1.99600
C          5.60000        8.89200        1.75900
C          4.58500        8.02500        2.10400
C          0.79900        8.41300        3.79100
C         -0.40800        8.67400        3.15800
C         -1.34600        9.50600        3.76400
C         -1.07800       10.09800        4.98800
C          0.12400        9.84500        5.59100
C          1.05800        9.01600        5.00000
C          3.88400        3.32600        1.86000
C          4.95800        4.01600        1.31000
C          6.02700        3.35100        0.73300
C          6.04800        1.99400        0.71600
C          5.02400        1.28500        1.27700
C          3.92800        1.94500        1.82300
C          1.50700        2.84200        3.26000
C          1.85700        2.18200        4.41900
C          1.18400        1.01900        4.76900
C          0.20600        0.49900        3.97200
C         -0.14800        1.15800        2.81500
C          0.48400        2.33400        2.45100
C          9.85700        0.50200        4.96900
C          8.73600       -0.20500        4.70500
C          7.53800        0.42500        4.02000
C          8.25300        1.45000        3.38700
B         -1.53100        5.63000        0.03100
