97
C:\Users\Javier\OneDrive - Universitat de Barcelona\Tesi\4 - Contribucions\Treballs\3-PhD\chapter_1\cif\pc2p\WELVUE.pc2p.pdb
Ru         2.71400        4.43700        2.54300
P          4.80700        5.54800        2.25200
P          4.00000        3.04600        3.99200
O          1.04400        6.43900        0.98100
O          2.89100        2.72000        0.01000
O          3.32400        6.20700        4.90600
O         -0.14900        3.89000        3.34300
N          1.13200        6.11400        4.48600
N          0.92000        2.04300        2.80000
C          1.66100        5.70100        1.56400
C          2.92300        3.33100        0.96700
C          2.38900        5.74400        4.25300
C          0.75000        7.05200        5.54000
C         -0.14600        8.03900        5.04000
C          0.16900        6.33600        6.67600
C          0.93500        3.37100        3.00200
C         -0.25600        1.15900        2.94900
C         -0.06000       -0.09800        2.13200
C         -0.55700        0.86200        4.39100
C          5.86300        5.09500        3.68800
C          5.76100        3.64100        4.00100
C          4.99800        7.33900        2.19900
C          6.21900        7.91200        1.93600
C          6.40100        9.27300        1.93200
C          5.33600       10.12000        2.19200
C          4.10300        9.57400        2.41400
C          3.93500        8.19900        2.44200
C          5.72700        5.01700        0.74800
C          5.12300        5.26300       -0.48300
C          5.75600        4.89500       -1.65900
C          6.96500        4.28000       -1.60400
C          7.56400        4.04800       -0.40700
C          6.94600        4.40900        0.79300
C          3.50600        2.88100        5.75100
C          4.42700        2.41100        6.68500
C          4.04600        2.21700        7.99900
C          2.76200        2.52900        8.38100
C          1.86200        2.98300        7.49100
C          2.22200        3.15300        6.13300
C          4.20000        1.31700        3.45300
C          3.65700        0.24500        4.15600
C          3.78200       -1.05600        3.68900
C          4.48200       -1.29000        2.49000
C          4.99600       -0.24700        1.79200
C          4.87200        1.04700        2.25600
H          1.51700        1.69300        2.57700
H          0.46700        5.65900        4.10800
H          1.53500        7.49300        5.84000
H         -0.36200        8.65100        5.73400
H          0.26200        8.50700        4.32100
H         -0.94200        7.61800        4.73200
H         -0.11000        6.96500        7.33600
H         -0.58700        5.83500        6.38300
H          0.81200        5.75000        7.04800
H         -1.00400        1.62000        2.59100
H         -0.84200       -0.63300        2.17800
H          0.11400        0.13600        1.22700
H          0.67900       -0.58800        2.47600
H         -0.78600        1.66700        4.83900
H         -1.27500        0.24700        4.44500
H          0.21600        0.48100        4.80200
H          6.77000        5.30500        3.48400
H          5.59000        5.59700        4.44700
H          6.13200        3.48500        4.86200
H          6.25300        3.15000        3.35200
H          6.96100        7.34600        1.75200
H          7.26400        9.63600        1.75000
H          5.45600       11.06200        2.21500
H          3.36000       10.14400        2.55400
H          3.07200        7.83800        2.62800
H          4.26900        5.68100       -0.51400
H          5.34900        5.07300       -2.49800
H          7.39900        4.01000       -2.40700
H          8.42100        3.63200       -0.38400
H          7.36900        4.23100        1.62600
H          5.31600        2.22400        6.41600
H          4.66900        1.87200        8.63300
H          2.51200        2.42400        9.29200
H          0.97600        3.18800        7.77600
H          1.58800        3.45600        5.49700
H          3.19600        0.40500        4.97000
H          3.39900       -1.78000        4.17200
H          4.59600       -2.17700        2.17000
H          5.44800       -0.41000        0.97300
H          5.24100        1.76500        1.75400
H         -1.33800        1.81400        7.76100
H         -2.40700       -0.14000        7.02600
H         -2.59700       -1.98300        8.46400
H         -1.21700        1.87200        8.74100
H         -0.65200        0.08200       11.37100
H         -2.47600       -1.92500        9.44500
C         -1.42000        1.06900        8.35200
C         -2.05200       -0.08900        7.90600
C         -2.16300       -1.19200        8.75900
C         -1.64300       -1.11400       10.05700
C         -1.00900        0.04500       10.49100
C         -0.89700        1.13600        9.63100
