158
C:\Users\Javier\OneDrive - Universitat de Barcelona\Tesi\4 - Contribucions\Treballs\3-PhD\chapter_1\cif\pc2p\WEWRUM.pc2p.pdb
Rh         3.35900       -1.76100       -1.36300
P          1.50600       -2.20100       -0.24400
P          2.93200       -3.67000       -2.38800
F          5.47800        2.97400       -3.87900
F          4.92800        4.89400       -5.68700
F          2.55300        4.90600       -6.95600
F          0.70600        2.97900       -6.42700
F          1.28400        1.02100       -4.66900
F          9.67200       -1.61100       -2.22300
F         11.64300       -2.59000       -3.78400
F         11.10200       -4.54000       -5.58500
F          8.61500       -5.57200       -5.75200
F          6.65200       -4.66800       -4.13700
F          7.12800       -1.49900        4.87600
F          7.40100       -2.92800        7.13000
F          6.59200       -5.51500        7.22100
F          5.51800       -6.67400        5.01300
F          5.22500       -5.25900        2.75100
C          3.48000        0.93900        0.33100
C          3.11200        2.30000        0.08900
H          2.97200        2.97100        0.74900
C          2.99700        2.45200       -1.24900
H          2.75400        3.24900       -1.70600
C          3.30800        1.18500       -1.85500
C          3.67600        0.90400       -3.17600
C          4.54600       -0.15600       -3.51300
C          5.40300       -0.23600       -4.66000
H          5.31000        0.25900       -5.46500
C          6.36600       -1.13800       -4.38900
H          7.08600       -1.38700       -4.95700
C          6.09300       -1.66000       -3.06100
C          6.98600       -2.48400       -2.32500
C          7.05200       -2.77200       -0.96600
C          7.78600       -3.85700       -0.36800
H          8.39300       -4.42400       -0.83000
C          7.48200       -3.94900        0.95200
H          7.84000       -4.59200        1.55300
C          6.55500       -2.94400        1.28800
C          5.98000       -2.55200        2.48600
C          5.14200       -1.41000        2.50100
C          4.36800       -0.76200        3.45300
H          4.29900       -0.99200        4.37200
C          3.70900        0.28600        2.82000
H          3.12700        0.90100        3.25100
C          4.02700        0.30200        1.47200
N          3.50200        0.27400       -0.84600
N          4.91600       -1.12800       -2.61200
N          6.32900       -2.19600        0.11900
N          4.94400       -0.73700        1.27900
C          5.84900       -0.88200        0.19400
O          6.20600        0.00800       -0.52200
C          3.39100        1.93400       -4.20300
C          4.31200        2.94100       -4.50500
C          4.02600        3.93000       -5.41600
C          2.81700        3.94700       -6.05500
C          1.90200        2.97000       -5.79500
C          2.19500        1.96800       -4.88100
C          8.08600       -3.10100       -3.13300
C          9.38200       -2.61000       -3.07200
C         10.38400       -3.07300       -3.89700
C         10.11500       -4.06900       -4.80400
C          8.87000       -4.59900       -4.88100
C          7.87200       -4.10400       -4.05400
C          6.17700       -3.33100        3.73600
C          6.73000       -2.76800        4.88100
C          6.86600       -3.49400        6.04800
C          6.48800       -4.80700        6.07600
C          5.93300       -5.40600        4.97000
C          5.79100       -4.66200        3.82100
C          0.92500       -3.92400       -0.57500
H          1.42400       -4.57300       -0.01800
H         -0.04100       -4.00900       -0.37400
C          1.19200       -4.17200       -2.06500
H          0.57100       -3.63500       -2.62000
H          1.06300       -5.12900       -2.28200
C          1.40000       -2.08600        1.58000
C          0.62800       -1.12400        2.24200
H          0.16000       -0.46800        1.74100
C          0.54400       -1.12000        3.61700
H          0.02000       -0.45400        4.04800
C          1.17900       -2.02900        4.35900
H          1.09700       -2.01400        5.30600
C          1.96800       -3.00500        3.73500
H          2.42900       -3.65400        4.25300
C          2.07000       -3.01600        2.35500
H          2.61000       -3.67200        1.93300
C          0.05000       -1.25100       -0.83300
C          0.19400       -0.35900       -1.88300
H          1.05500       -0.19100       -2.24600
C         -0.92800        0.30100       -2.41300
H         -0.82200        0.91100       -3.13200
C         -2.17400        0.06800       -1.89600
H         -2.93100        0.51400       -2.25700
C         -2.32500       -0.81700       -0.84600
H         -3.19200       -0.98400       -0.49400
C         -1.23500       -1.46200       -0.30100
H         -1.35200       -2.05200        0.43600
C          2.97700       -3.49000       -4.19800
C          3.78600       -4.21900       -5.06800
H          4.32400       -4.92500       -4.72700
C          3.81900       -3.92500       -6.42700
H          4.38500       -4.42400       -7.00500
C          3.03300       -2.91300       -6.94300
H          3.07200       -2.70400       -7.86800
C          2.18500       -2.20000       -6.10500
H          1.61900       -1.52600       -6.46200
C          2.16800       -2.46900       -4.74600
H          1.60400       -1.96300       -4.17500
C          3.82100       -5.23300       -2.02700
C          4.74700       -5.25200       -1.00400
H          4.91400       -4.45800       -0.51200
C          5.44200       -6.42400       -0.68200
H          6.08100       -6.41900        0.02000
C          5.19600       -7.58600       -1.38500
H          5.67900       -8.37700       -1.17800
C          4.24100       -7.59800       -2.39100
H          4.05100       -8.40400       -2.85700
C          3.55100       -6.41500       -2.72400
H          2.90600       -6.42000       -3.42000
O         14.19000       -5.22800       -8.81900
C         13.73300       -4.50100       -7.73100
H         12.74400       -4.49700       -7.71600
H         14.04900       -3.56500       -7.79400
C         14.25400       -5.12900       -6.50000
H         14.63200       -4.43900       -5.89900
H         13.52600       -5.59800       -6.02200
C         15.27000       -6.05800       -6.88100
H         16.14500       -5.79800       -6.49700
H         15.04500       -6.97200       -6.57300
C         15.30500       -6.00000       -8.30200
H         15.27000       -6.91900       -8.67000
H         16.15500       -5.58700       -8.59400
O          7.61700       -2.13600       -9.99800
C          6.84400       -3.05800       -9.22300
H          6.91100       -3.97000       -9.60200
H          5.89100       -2.78800       -9.21100
C          7.43300       -3.01800       -7.81000
H          6.71300       -3.08500       -7.13300
H          8.06300       -3.76900       -7.67600
C          8.02900       -1.92300       -7.70900
H          8.94600       -2.07200       -7.36800
H          7.55000       -1.34000       -7.06700
C          8.08900       -1.23900       -9.09400
H          7.53200       -0.42000       -9.09900
H          9.02100       -0.98700       -9.31400
O         12.88900        0.67000       -7.95400
C         13.64500        0.08100       -6.98900
H         14.46500       -0.23600       -7.42900
H         13.91100        0.80500       -6.37000
C         13.25100       -0.83400       -6.29200
H         13.12400       -0.55700       -5.34900
H         13.86000       -1.61400       -6.33100
C         12.03800       -1.08400       -6.93100
H         11.27500       -0.94200       -6.31700
H         12.00300       -2.00500       -7.28700
C         12.02800       -0.08700       -8.02900
H         12.08900       -0.56200       -8.89500
H         11.16600        0.40100       -8.01400
