180
C:\Users\Javier\OneDrive - Universitat de Barcelona\Tesi\4 - Contribucions\Treballs\3-PhD\chapter_1\cif\pc2p\WEYSOK.pc2p.pdb
Ru        12.70600        3.02700        4.72400
P         12.83100        5.22200        5.27300
C         13.37000        5.68300        6.96000
C         12.46700        5.87700        8.00300
H         11.53300        5.85000        7.83000
C         12.92300        6.11100        9.29200
H         12.30000        6.24600        9.99600
C         14.27700        6.15000        9.55700
H         14.58500        6.28500       10.44600
C         15.18500        5.99500        8.53100
H         16.11700        6.04800        8.70800
C         14.73700        5.76100        7.24300
H         15.36800        5.65200        6.54000
C         13.85800        6.36600        4.28200
C         14.58400        5.91700        3.17400
H         14.57100        4.99600        2.93700
C         15.32500        6.82500        2.42300
H         15.83100        6.51600        1.68300
C         15.33300        8.15800        2.73600
H         15.83500        8.76500        2.20400
C         14.61000        8.62600        3.83100
H         14.61000        9.55100        4.04700
C         13.88800        7.72300        4.60300
H         13.40700        8.03500        5.36100
C         11.16500        5.99100        5.07100
H         11.12800        6.83300        5.58900
H         11.02000        6.21300        4.11600
C         10.05700        5.05600        5.54600
H          9.21100        5.28400        5.08300
H          9.91700        5.18000        6.51800
P         10.49000        3.27500        5.20400
C          9.88800        2.45700        6.72900
C         10.49100        2.81900        7.93300
H         11.16600        3.48900        7.93900
C         10.11700        2.20900        9.12100
H         10.52300        2.47300        9.93900
C          9.15300        1.21600        9.11600
H          8.90800        0.78300        9.92700
C          8.54600        0.85700        7.93000
H          7.87800        0.18200        7.92700
C          8.90900        1.47700        6.73700
H          8.48300        1.22600        5.92600
C          9.24000        2.75700        3.96600
C          9.60800        1.89100        2.93700
H         10.50900        1.59400        2.87000
C          8.66900        1.45600        2.00700
H          8.93100        0.85800        1.31600
C          7.36200        1.89000        2.08300
H          6.72500        1.60100        1.44100
C          6.98100        2.75300        3.10400
H          6.08400        3.05700        3.15700
C          7.91300        3.17400        4.04600
H          7.64300        3.75000        4.75000
C         12.23900        3.62100        2.92500
C         11.95000        3.87100        1.75100
C         11.35500        4.08400        0.51600
C         10.30000        5.15600        0.44700
H          9.47200        4.82500        0.85200
H         10.13200        5.39100       -0.49000
H         10.60700        5.94900        0.93300
C         11.67100        3.33600       -0.60900
C         12.69300        2.33500       -0.56800
N         13.51500        1.54100       -0.56500
C         11.02500        3.51500       -1.86400
N         10.48800        3.62300       -2.87600
C         14.42700        1.79900        3.96800
C         14.81000        2.33700        5.22000
C         13.92700        1.81900        6.22400
C         13.01400        0.93500        5.56300
C         13.31300        0.93400        4.17600
C         15.13500        1.99700        2.64900
H         15.93700        2.54200        2.78600
H         14.53500        2.45100        2.02100
H         15.39100        1.12500        2.28300
C         16.09000        3.09300        5.46900
H         16.85300        2.48800        5.35700
H         16.08800        3.44900        6.38300
H         16.16200        3.83200        4.83200
C         14.06600        2.01900        7.70900
H         14.74000        1.40200        8.06000
H         13.20500        1.84300        8.14500
H         14.33900        2.94200        7.89200
C         12.04600        0.02000        6.25400
H         11.24300       -0.08200        5.70400
H         11.80100        0.40100        7.12300
H         12.46500       -0.85600        6.38700
C         12.73100        0.01000        3.13700
H         13.31000       -0.77500        3.03600
H         12.66900        0.48000        2.27900
H         11.83800       -0.27700        3.41900
Ru         4.65600        1.57300       -5.30800
P          4.87900        3.73300       -4.64800
C          5.50000        4.12100       -2.97200
C          4.65000        4.45200       -1.92200
H          3.71900        4.54100       -2.08500
C          5.14600        4.65400       -0.64300
H          4.55300        4.88800        0.06300
C          6.49600        4.51700       -0.39100
H          6.83200        4.64000        0.49000
C          7.35100        4.20000       -1.42300
H          8.28100        4.10400       -1.25300
C          6.86300        4.01900       -2.71200
H          7.46500        3.82300       -3.42100
C          5.93100        4.83800       -5.65600
C          6.53700        4.36900       -6.81600
H          6.39200        3.47500       -7.09900
C          7.35700        5.20900       -7.56600
H          7.77900        4.88300       -8.35300
C          7.55600        6.50900       -7.17000
H          8.12700        7.07600       -7.67800
C          6.93000        7.00100       -6.03700
H          7.04900        7.90900       -5.78300
C          6.12700        6.16400       -5.27400
H          5.70900        6.49600       -4.48700
C          3.22300        4.54800       -4.73500
H          3.22900        5.37200       -4.18800
H          3.02700        4.80100       -5.67200
C          2.13400        3.60200       -4.22100
H          1.26300        3.86300       -4.61200
H          2.06400        3.68800       -3.23600
P          2.49300        1.82800       -4.65600
C          1.96200        0.95300       -3.14200
C          2.60600        1.25800       -1.93900
H          3.25900        1.94700       -1.91600
C          2.30100        0.56200       -0.78000
H          2.73600        0.78600        0.03400
C          1.36700       -0.45600       -0.80100
H          1.17300       -0.93900       -0.00800
C          0.72000       -0.76900       -1.97700
H          0.07300       -1.46400       -1.99200
C          1.01400       -0.06600       -3.14600
H          0.56500       -0.28600       -3.95400
C          1.15200        1.39700       -5.82800
C          1.42700        0.58200       -6.92500
H          2.31700        0.27800       -7.06900
C          0.42800        0.20500       -7.81000
H          0.62900       -0.36700       -8.54200
C         -0.86300        0.66300       -7.62400
H         -1.54700        0.42100       -8.23600
C         -1.15800        1.47600       -6.54200
H         -2.04400        1.79500       -6.41500
C         -0.16200        1.82600       -5.64000
H         -0.37700        2.36400       -4.88700
C          3.99300        2.37600       -6.96400
C          3.53400        2.89100       -7.98400
C          2.92300        3.50200       -9.07400
C          1.47100        3.88100       -8.95700
H          1.39200        4.71500       -8.44600
H          0.98300        3.16700       -8.49400
H          1.09300        4.01000       -9.85200
C          3.63100        3.76300      -10.22900
C          5.00000        3.35900      -10.32600
N          6.07900        3.00500      -10.38700
C          3.06300        4.43100      -11.36400
N          2.62300        4.96100      -12.27500
C          6.25100        0.32200       -6.30100
C          6.81500        0.85600       -5.12600
C          6.06200        0.36900       -4.00100
C          5.05700       -0.51000       -4.50600
C          5.14000       -0.52500       -5.92800
C          6.75800        0.48800       -7.70400
H          7.43300        1.19700       -7.72500
H          6.01400        0.73000       -8.29400
H          7.15600       -0.35300       -8.00800
C          8.12800        1.59500       -5.05600
H          8.85200        1.00200       -5.34500
H          8.29000        1.88500       -4.13400
H          8.09400        2.37900       -5.64400
C          6.35600        0.59800       -2.53700
H          6.83800       -0.17400       -2.17600
H          5.51400        0.71500       -2.04900
H          6.90500        1.40300       -2.43600
C          4.19700       -1.40900       -3.67900
H          3.35200       -1.57400       -4.14800
H          4.01400       -0.98400       -2.81600
H          4.66000       -2.26000       -3.53200
C          4.41600       -1.44800       -6.84400
H          4.90700       -2.29200       -6.91300
H          4.34500       -1.03800       -7.73100
H          3.51800       -1.62100       -6.49000
