106
C:\Users\Javier\OneDrive - Universitat de Barcelona\Tesi\4 - Contribucions\Treballs\3-PhD\chapter_1\cif\pc2p\WEYSUQ.pc2p.pdb
Ru         2.56300       13.15700        7.40000
P          0.88500       13.69500        8.84400
C          0.44100       15.44000        9.17100
C          1.10900       16.46900        8.52300
H          1.82200       16.26300        7.93100
C          0.75300       17.79100        8.73000
H          1.21200       18.48500        8.27400
C         -0.27400       18.09900        9.60600
H         -0.53700       19.00400        9.73200
C         -0.91700       17.09200       10.29700
H         -1.59600       17.30600       10.92700
C         -0.57500       15.77600       10.07400
H         -1.03500       15.08700       10.54100
C         -0.72600       12.91500        8.49600
C         -1.16300       11.78500        9.13600
H         -0.67200       11.45100        9.87700
C         -2.30600       11.11500        8.72200
H         -2.59700       10.34300        9.19300
C         -3.00700       11.55000        7.66300
H         -3.77900       11.08100        7.37100
C         -2.59400       12.67300        7.01300
H         -3.08200       12.99200        6.26400
C         -1.46000       13.35500        7.44000
H         -1.19200       14.14400        6.98400
C          1.36000       13.08800       10.50700
H          0.73900       13.44100       11.19200
H          1.32900       12.09900       10.53400
C          2.78100       13.58300       10.77300
H          3.16100       13.10300       11.55100
H          2.76300       14.54900       10.98600
P          3.84700       13.29000        9.27700
C          5.08700       14.64000        9.40800
C          4.68100       15.96100        9.63000
H          3.76000       16.15400        9.76500
C          5.60600       16.98900        9.65500
H          5.31900       17.87700        9.83500
C          6.94500       16.73600        9.42000
H          7.57600       17.44700        9.42000
C          7.35600       15.44100        9.18600
H          8.27400       15.26200        9.01700
C          6.44500       14.39500        9.19300
H          6.74700       13.50600        9.05000
C          4.85700       11.83700        9.76700
C          5.00200       10.74800        8.91300
H          4.58800       10.76000        8.05800
C          5.75000        9.64400        9.30400
H          5.84200        8.90400        8.71700
C          6.36200        9.61500       10.54200
H          6.87000        8.85700       10.80300
C          6.23400       10.68700       11.39900
H          6.65100       10.66700       12.25200
C          5.49500       11.79800       11.01600
H          5.42100       12.53800       11.60500
C          2.06800       11.33900        7.93100
C          1.75600       10.17000        8.14700
C          1.47600        8.84800        8.48800
C          2.00900        8.33800        9.81200
H          1.71300        7.40100        9.93600
H          2.99900        8.33800        9.77900
C          1.56400        9.15000       11.00600
C          0.20200        9.30400       11.27700
H         -0.44000        8.94500       10.67700
C         -0.22500        9.97800       12.41800
C          0.72900       10.50300       13.27800
H          0.44200       10.95600       14.06200
C          2.09300       10.38400       13.02800
C          2.48700        9.69200       11.87500
H          3.41200        9.59400       11.68700
C         -1.71000       10.13900       12.70200
H         -1.88400        9.95700       13.64900
H         -2.21800        9.51000       12.14900
H         -1.98500       11.05600       12.49100
C          3.12100       10.94400       13.97400
H          3.55700       11.71800       13.56000
H          3.79100       10.25700       14.17200
H          2.68200       11.22200       14.80500
C          0.76900        8.00300        7.66500
C          0.31100        8.42700        6.37000
N         -0.06200        8.73200        5.32900
C          0.44700        6.66200        8.04600
N          0.18500        5.59400        8.36100
C          1.93700       12.91500        5.25100
C          2.01900       14.31700        5.48500
C          3.35700       14.63800        5.84800
C          4.12300       13.44200        5.81100
C          3.25100       12.36700        5.42600
C          0.74800       12.13500        4.75900
H         -0.06100       12.68200        4.84800
H          0.64900       11.31800        5.29400
H          0.88000       11.89700        3.81900
C          0.91600       15.29000        5.17700
H          1.06200       15.67900        4.29000
H          0.91200       16.00300        5.84900
H          0.05500       14.82300        5.19100
C          3.92400       16.02000        6.00000
H          4.52100       16.04500        6.77800
H          3.19300       16.65900        6.12800
H          4.42700       16.25600        5.19300
C          5.62400       13.34300        5.96400
H          6.05200       13.51400        5.09900
H          5.86200       12.44500        6.27600
H          5.93000       14.00700        6.61600
C          3.64100       10.94900        5.15600
H          2.93800       10.34900        5.47900
H          4.48200       10.74700        5.62000
H          3.76300       10.82200        4.19200
