81
C:\Users\Javier\OneDrive - Universitat de Barcelona\Tesi\4 - Contribucions\Treballs\3-PhD\chapter_1\cif\pc2p\WIJCIC.pc2p.pdb
Ru        -0.88800        7.46500       12.23800
P         -1.68000        8.01900       10.19300
P         -1.49800        5.39800       11.59600
S          1.16000        7.13900       11.02700
C         -1.79600        7.51200       14.23300
H         -2.46300        6.86900       14.58200
C         -2.08200        8.72900       13.59900
H         -2.98400        9.09500       13.41700
C         -0.85600        9.39500       13.39600
H         -0.74700       10.30000       13.00900
C          0.16100        8.59900       13.88900
H          1.12100        8.83600       13.90200
C         -0.39200        7.42900       14.41100
H          0.09700        6.71300       14.88800
C         -1.70800        6.54500        9.07200
H         -2.60400        6.46000        8.68500
H         -1.07900        6.69500        8.33700
C         -1.35400        5.25300        9.75900
H         -0.43500        5.00400        9.52600
H         -1.94900        4.54300        9.44200
C          2.22400        5.90300       11.86800
H          1.64100        5.19300       12.23600
C          3.12700        5.27600       10.80000
H          3.69700        4.60600       11.21100
H          3.67900        5.96500       10.39800
H          2.58000        4.85900       10.11600
C         -3.38700        8.70900       10.11000
C         -3.58400       10.02600       10.48200
H         -2.84300       10.55800       10.70800
C         -4.85400       10.57800       10.52400
H         -4.96400       11.47300       10.79400
C         -5.93700        9.84600       10.18400
H         -6.79700       10.22400       10.21500
C         -5.76400        8.54100        9.79300
H         -6.51200        8.02700        9.55000
C         -4.49700        7.97100        9.75000
H         -4.39500        7.07900        9.47400
C         -0.77900        9.28400        9.21000
C         -1.00900        9.43800        7.85600
H         -1.64600        8.89200        7.43300
C         -0.32200       10.38100        7.11000
H         -0.47600       10.46000        6.18600
C          0.59100       11.20200        7.73900
H          1.06600       11.84200        7.24100
C          0.80700       11.08700        9.08400
H          1.41400       11.66300        9.51000
C          0.13400       10.12400        9.82100
H          0.30000       10.04100       10.74300
C         -0.59000        3.94500       12.25300
C         -0.59400        3.76300       13.63000
H         -1.05800        4.37500       14.17100
C          0.06500        2.71100       14.22400
H          0.04300        2.60800       15.15700
C          0.75500        1.81400       13.44500
H          1.21900        1.10200       13.84600
C          0.76600        1.96400       12.07200
H          1.23100        1.34400       11.53700
C          0.09400        3.02100       11.47300
H          0.10100        3.11200       10.53800
C         -3.21400        4.81500       11.92500
C         -3.55300        3.46500       11.72800
H         -2.89300        2.85900       11.44800
C         -4.83300        3.02200       11.94000
H         -5.05100        2.12200       11.78000
C         -5.79200        3.88900       12.38200
H         -6.66200        3.57700       12.55000
C         -5.49400        5.21800       12.58400
H         -6.16000        5.81100       12.88000
C         -4.20200        5.68100       12.34800
H         -4.00100        6.59100       12.47700
C          3.04500        6.46000       12.98900
C          3.83500        7.57300       12.81600
H          3.80500        8.03700       11.99800
C          4.67500        8.02400       13.82600
H          5.21900        8.77800       13.68500
C          4.70900        7.37000       15.02300
H          5.27900        7.67600       15.70400
C          3.92300        6.27600       15.24000
H          3.93500        5.84600       16.07600
C          3.10100        5.80200       14.22200
H          2.58000        5.03300       14.36300
