191
C:\Users\Javier\OneDrive - Universitat de Barcelona\Tesi\4 - Contribucions\Treballs\3-PhD\chapter_1\cif\pc2p\WIXMEY.pc2p.pdb
Pd         3.21700        4.49700        6.00800
P          4.91100        4.03400        4.59300
P          4.89700        4.53500        7.69100
S          1.50000        4.94200        7.52400
C          0.16900        4.64500        5.13900
C         -0.82900        5.35400        4.07900
H         -1.59700        6.09300        4.41700
B          0.80500        5.89100        4.13800
H          1.14100        6.90000        4.49000
B          1.75900        4.40400        4.47300
H          2.81200        4.43100        4.85400
B          0.56000        3.09800        4.71700
H          0.76000        2.27900        5.45400
B         -1.08800        3.71100        4.45800
H         -1.97100        3.30200        5.01300
B         -1.24500        4.29600        2.82400
H         -2.23500        4.28000        2.30200
B         -0.07200        5.62900        2.57700
H         -0.29300        6.47400        1.87600
B          1.58000        4.99900        2.81900
H          2.45100        5.43100        2.26400
B          1.44300        3.25000        3.18000
H          2.22800        2.51200        2.87500
B         -0.30300        2.83800        3.14800
H         -0.65700        1.83000        2.81300
B          0.32000        3.99500        1.99600
H          0.37500        3.75500        0.90400
C          0.03400        5.08100        6.61500
N         -1.12500        5.41600        6.97000
C         -1.35500        5.77600        8.31900
C         -1.98100        4.90200        9.23600
H         -2.19200        4.01400        8.97600
C         -2.28700        5.33400       10.50500
H         -2.65000        4.73100       11.14300
C         -2.06500        6.63800       10.83500
H         -2.34300        6.92900       11.69400
C         -1.47300        7.55300       10.01800
H         -1.29500        8.44700       10.28700
C         -1.13500        7.04800        8.69900
H         -0.73900        7.64500        8.07300
C          6.37500        4.78800        5.38700
H          7.18700        4.54500        4.87500
H          6.28700        5.77500        5.37000
C          6.52000        4.32700        6.80100
H          7.22200        4.85600        7.25500
H          6.79100        3.37400        6.81600
C          5.06900        4.55500        2.84100
C          4.94900        3.66500        1.80500
H          4.77100        2.75000        1.98300
C          5.08700        4.10100        0.49300
H          4.99600        3.47900       -0.21800
C          5.34900        5.39500        0.21400
H          5.46200        5.68100       -0.68500
C          5.45100        6.29800        1.25000
H          5.61800        7.21200        1.05500
C          5.31800        5.90500        2.56800
H          5.39500        6.53700        3.27300
C          5.36200        2.26700        4.58300
C          4.57400        1.34600        5.23800
H          3.73900        1.61100        5.60400
C          4.99800        0.03100        5.35900
H          4.47800       -0.58700        5.85700
C          6.17600       -0.38600        4.76300
H          6.45100       -1.29400        4.81700
C          6.94600        0.54600        4.08400
H          7.76500        0.27700        3.68600
C          6.54700        1.84300        3.98000
H          7.07800        2.46400        3.49400
C          4.84900        3.20500        8.92700
C          3.87000        2.26000        8.88800
H          3.22200        2.28700        8.19400
C          3.80500        1.25600        9.85000
H          3.10300        0.61600        9.83500
C          4.76300        1.20700       10.81200
H          4.73600        0.52200       11.47100
C          5.79300        2.15900       10.84000
H          6.47000        2.10800       11.50400
C          5.82000        3.13400        9.93800
H          6.50600        3.78900        9.97700
C          5.08700        6.02700        8.68900
C          5.98100        7.02500        8.40800
H          6.58100        6.92300        7.67900
C          6.02400        8.20600        9.18800
H          6.62400        8.90700        8.96600
C          5.18500        8.31900       10.26700
H          5.21700        9.09400       10.81800
C          4.32300        7.33600       10.54100
H          3.74300        7.43200       11.28700
C          4.24300        6.18700        9.77800
H          3.61300        5.51000        9.99700
C         -1.01100        6.32900        8.07700
C         -1.69100        5.61500        9.08000
H         -2.03700        4.74800        8.88800
C         -1.86600        6.18300       10.36400
H         -2.33500        5.69700       11.03400
C         -1.36100        7.47200       10.63900
H         -1.48200        7.85000       11.50200
C         -0.66900        8.18800        9.63800
H         -0.33100        9.05500        9.82600
C         -0.49400        7.61900        8.35600
H         -0.03300        8.10600        7.68300
Pd         5.58200       12.72100        3.83000
P          3.68900       11.49000        3.93900
P          4.17000       14.51500        3.24300
S          7.47900       14.00200        3.52800
N         10.05800       13.21500        3.52000
B          7.97900       11.37700        5.74800
H          7.82600       12.23600        6.45100
B          6.85100       11.11500        4.38400
H          5.87000       11.63100        4.22200
B          7.86600       10.43700        3.08700
H          7.62800       10.66200        2.01700
B          9.52000       10.27800        3.66700
H         10.38700       10.40300        2.97000
B          9.60300        9.14600        4.98500
H         10.50600        8.51000        5.17600
B          8.62000        9.82600        6.32600
H          8.87500        9.62500        7.39800
B          6.93700       10.00900        5.74900
H          6.07100        9.94300        6.45600
B          6.86800        9.34100        4.08600
H          5.97500        8.80300        3.68200
B          8.53500        8.86000        3.63400
H          8.73100        8.01600        2.92300
B          7.92800        8.58300        5.28200
H          7.70600        7.56000        5.67500
C          8.52200       11.53300        4.17500
C          9.54100       10.85700        5.26200
H         10.44600       11.39100        5.64900
C          8.84400       12.94400        3.69300
C         10.39200       14.53800        3.05000
C         10.48700       14.80700        1.74000
H         10.26700       14.13200        1.10900
C         10.90600       16.06700        1.27500
H         10.96000       16.26900        0.34800
C         11.24700       17.02900        2.27600
H         11.54300       17.89500        2.01700
C         11.14800       16.70900        3.63000
H         11.39400       17.35800        4.27900
C         10.71400       15.50500        4.03800
H         10.62600       15.30700        4.96200
C          2.26100       12.65400        3.82000
H          1.45100       12.15700        3.54500
H          2.08800       13.05700        4.70900
C          2.54700       13.74900        2.81700
H          1.83200       14.43400        2.84700
H          2.58000       13.37100        1.90300
C          3.44200       10.45800        2.43200
C          2.26900        9.63000        2.39800
H          1.66100        9.55700        3.12400
C          2.10500        8.93300        1.18700
H          1.32000        8.40700        1.07900
C          2.98800        8.95900        0.16700
H          2.86400        8.41300       -0.60100
C          4.06400        9.79100        0.27200
H          4.64800        9.87500       -0.47300
C          4.32900       10.49200        1.38200
H          5.12400       11.00900        1.44400
C          3.25700       10.45400        5.32300
C          3.39400        9.05600        5.32700
H          3.75100        8.62500        4.56000
C          3.02600        8.29300        6.41900
H          3.12500        7.34800        6.40100
C          2.53100        8.90000        7.50200
H          2.26200        8.36800        8.24300
C          2.39900       10.25600        7.58200
H          2.03100       10.67400        8.35200
C          2.83100       11.01300        6.47300
H          2.82000       11.96100        6.53800
C          3.75500       15.57000        4.67200
C          4.06700       15.11000        5.94500
H          4.52500       14.28300        6.04000
C          3.72600       15.82900        7.07800
H          3.92500       15.48600        7.94100
C          3.10100       17.03100        6.94200
H          2.86100       17.52700        7.71600
C          2.82100       17.52300        5.72100
H          2.39600       18.36900        5.64300
C          3.15100       16.79100        4.55100
H          2.95600       17.14800        3.69300
C          4.53500       15.70700        1.93100
C          5.44100       16.69700        2.16800
H          5.87000       16.74000        3.01400
C          5.75200       17.63900        1.20400
H          6.40800       18.30100        1.38600
C          5.11100       17.62300       -0.03000
H          5.25600       18.31200       -0.66600
C          4.26400       16.58600       -0.30000
H          3.90300       16.48600       -1.17200
C          3.93000       15.67700        0.68800
H          3.26800       15.01900        0.50800
