90
C:\Users\Javier\OneDrive - Universitat de Barcelona\Tesi\4 - Contribucions\Treballs\3-PhD\chapter_1\cif\pc2p\WOGPUF.pc2p.pdb
Ru        14.38000       12.99700       11.19800
P         13.78100       13.48800       13.34300
P         13.69000       10.87900       11.70600
N         14.96300       14.93900       10.55100
N         15.11300       12.67000        9.21600
Cl        16.62200       12.37100       11.78500
Cl        12.20800       13.73600       10.46500
F         12.14200        8.33000       12.43000
F         10.23300        7.06200       11.13000
F          9.43700        7.90200        8.67700
F         10.58700       10.11700        7.57700
F         12.51400       11.36000        8.81900
F         14.42800        8.55500        9.65700
F         16.37600        6.80300        9.80200
F         18.04300        6.72900       11.93400
F         17.66100        8.48100       13.98500
F         15.70700       10.24700       13.88800
F         10.83400       12.79000       13.23300
F          8.69200       14.32500       13.35100
F          8.91900       16.99700       13.75900
F         11.38200       18.09000       14.09600
F         13.54800       16.58700       14.04800
F         16.57100       14.98200       13.04600
F         18.20400       15.80100       14.92000
F         17.47300       15.69500       17.53100
F         15.03600       14.67600       18.20600
F         13.38600       13.81900       16.34100
C         14.75800       16.07700       11.22000
H         14.40500       16.02200       12.07900
C         15.03800       17.32700       10.71200
H         14.89100       18.09000       11.22300
C         15.53600       17.42000        9.44500
H         15.74700       18.24800        9.07800
C         15.71900       16.26100        8.71400
H         16.03700       16.30400        7.84000
C         15.42900       15.03800        9.28900
C         15.59200       13.76900        8.58100
C         16.22000       13.67200        7.35000
H         16.53200       14.43500        6.92100
C         16.37900       12.44000        6.76500
H         16.78700       12.36300        5.93200
C         15.93100       11.33000        7.42100
H         16.04500       10.48400        7.05300
C         15.31100       11.48800        8.63400
H         15.01300       10.72700        9.07500
C         13.34700       11.95100       14.27200
H         14.11200       11.68100       14.80300
H         12.62200       12.15000       14.88400
C         12.93600       10.79600       13.39100
H         11.97000       10.79100       13.30600
H         13.20100        9.96400       13.81500
C         14.93700       14.24200       14.59300
C         14.59400       14.24100       15.94300
C         15.44200       14.70300       16.93000
C         16.66100       15.20100       16.59800
C         17.02600       15.26800       15.28300
C         16.16300       14.80300       14.30000
C         15.84100        9.42500       12.83800
C         16.86000        8.51300       12.90500
C         17.04100        7.63200       11.89100
C         16.21300        7.65800       10.81900
C         15.18400        8.60200       10.76000
C         14.97000        9.51600       11.75900
C         12.36800        9.98000       10.74300
C         11.75400        8.84700       11.25600
C         10.76900        8.16500       10.58100
C         10.36100        8.59300        9.34700
C         10.94200        9.69600        8.79700
C         11.94400       10.36800        9.49000
C         12.30700       14.58200       13.59800
C         11.03200       14.09600       13.44700
C          9.88100       14.88600       13.49500
C         10.00200       16.22800       13.70300
C         11.24400       16.76200       13.86900
C         12.37000       15.96400       13.82800
Cl         7.25200        9.68900       10.42400
Cl         7.50000       11.58400        8.49400
Cl         8.94500       11.87200       10.81100
C          7.47300       11.34500       10.14700
H          6.73000       11.84900       10.54200
Cl         8.69200        6.84900       14.31600
Cl        10.22400        8.40200       16.18000
Cl         9.15400        9.61600       13.76700
C          8.92300        8.40100       15.02000
H          8.10200        8.63000       15.50300
Cl        13.84300        4.21900        9.99300
Cl        13.17900        1.75400       10.71500
Cl        15.85900        2.33600       10.14400
C         14.12300        2.50100        9.53800
H         13.95200        2.25300        8.60600
