55
C:\Users\Javier\OneDrive - Universitat de Barcelona\Tesi\4 - Contribucions\Treballs\3-PhD\chapter_1\cif\pc2p\WOPFOW.pc2p.pdb
Pd         1.69100        8.23000        4.30500
F          4.00800        7.65800        8.42600
I          3.97200        9.41400        4.93100
I          1.28100        9.71800        2.17500
P          1.90700        6.99500        6.17000
P         -0.24000        7.08900        3.98800
F          1.70900        5.87600        8.96800
F          0.85400        9.88100        6.61300
C          0.85000        9.13200        7.72100
F         -1.89600        8.73500        5.92000
F          3.40800        5.05900        4.52500
F          6.50400        6.84300        8.56300
F         -4.88600       10.66200        2.89500
C          3.56200        6.34400        6.51400
C          4.43200        6.80600        7.50300
C          4.15400        5.49400        5.56900
F         -0.10500       10.97300        8.84900
C          1.26400        7.12000        8.90000
F         -0.19400        9.54500       11.15200
F          0.69600        7.00000       11.19500
C          5.44800        5.06900        5.61700
F          5.97100        4.23200        4.70900
C         -1.70000        8.10900        3.64300
C          0.34600        9.71700        8.87700
F         -3.66500        9.37700        0.84400
F         -3.99900       10.31500        5.43400
C         -3.25300        9.20700        2.12800
C         -3.41500        9.66000        4.42500
C          0.29600        8.99100       10.01600
C          6.28700        5.54000        6.61700
F          7.55700        5.16100        6.67500
C         -2.32900        8.82800        4.62400
C         -3.85200        9.83900        3.16300
C          5.75400        6.38100        7.57400
C          0.75400        7.68100       10.06200
C          0.75200        5.58200        6.03200
H          1.10500        4.92300        5.41400
H          0.63600        5.16100        6.89700
C         -0.59000        6.11300        5.52100
H         -1.00500        6.67900        6.19200
H         -1.19100        5.37700        5.32300
C          1.32600        7.83400        7.69500
F         -2.56800        5.38300        3.19800
F          2.01600        5.94700        2.15200
F         -2.65700        3.28300        1.51100
F          1.90500        3.83400        0.54200
F         -0.43000        2.49800        0.19500
C          0.83100        5.32800        2.02900
C         -0.27000        5.74200        2.75000
C         -1.44400        5.04200        2.54500
C         -0.37600        3.53600        1.02000
C          0.79100        4.21200        1.18700
C         -1.51500        3.95000        1.68600
F         -1.60900        7.73900        1.29600
C         -2.14100        8.34400        2.36900
