63
C:\Users\Javier\OneDrive - Universitat de Barcelona\Tesi\4 - Contribucions\Treballs\3-PhD\chapter_1\cif\pc2p\WOPGAJ.pc2p.pdb
Pd        12.77800        4.60100       11.24100
Cl        11.09900        2.97600       11.40100
P         14.29300        6.23500       11.09200
F         14.26100        6.00000       13.99700
F         15.94300        8.50000        9.88200
F         16.27800        6.81300        5.54700
F         18.85200        5.69100       14.79900
C         13.47900        7.81700       11.54400
H         13.42500        7.90100       12.50900
H         13.99000        8.56500       11.19800
C         15.64000        7.54100        8.98400
C         14.92500        6.42900        9.40500
C         17.03900        5.98600       11.70800
H         17.20700        6.02200       10.79400
C         14.69900        5.43000        8.46700
H         14.23600        4.66500        8.71900
C         15.73100        6.06300       12.16800
C         15.53300        5.96300       13.53800
C         16.08500        7.70200        7.69000
H         16.54300        8.46600        7.42400
C         18.09800        5.85600       12.59400
H         18.97300        5.81400       12.28400
C         15.82000        6.68300        6.81600
C         16.55100        5.83300       14.44200
H         16.38900        5.77700       15.35500
C         17.82600        5.79000       13.93200
C         15.15200        5.55200        7.15900
H         15.00300        4.87800        6.53600
C         15.75300       10.70300       14.19200
H         15.76500       11.52200       13.65300
C         14.30300       10.34900       14.44900
H         13.86500       10.22100       13.58100
Cl        16.51900        9.42300       13.23600
Cl        14.11200        8.86100       15.38200
Cl        16.67100       11.01900       15.65500
Cl        13.51000       11.69700       15.26500
Cl        14.45700        2.97600       11.08100
C         12.07700        7.81700       10.93800
P         11.26300        6.23500       11.39000
C         10.63100        6.42900       13.07700
C          9.91600        7.54100       13.49800
F          9.61300        8.50000       12.60000
C          9.47100        7.70200       14.79200
H          9.01300        8.46600       15.05800
C          9.73600        6.68300       15.66600
F          9.27700        6.81300       16.93600
C         10.40300        5.55200       15.32300
C         10.85600        5.43000       14.01600
H         11.32000        4.66500       13.76400
H         10.55300        4.87800       15.94700
C          9.82500        6.06300       10.31400
C          8.51600        5.98600       10.77400
H          8.34900        6.02200       11.68800
C          7.45800        5.85600        9.88800
H          6.58300        5.81400       10.19800
C          7.72900        5.79000        8.55000
F          6.70400        5.69100        7.68300
C          9.00500        5.83300        8.04000
C         10.02200        5.96300        8.94400
F         11.29500        6.00000        8.48500
H          9.16700        5.77700        7.12700
H         12.13100        7.90100        9.97300
H         11.56600        8.56500       11.28400
