116
C:\Users\Javier\OneDrive - Universitat de Barcelona\Tesi\4 - Contribucions\Treballs\3-PhD\chapter_1\cif\pc2p\WOPPAV.pc2p.pdb
Ru         5.89100       19.61300       15.09000
P          5.15600       18.54800       16.98900
P          4.21400       18.43500       14.07100
N          8.46400       18.21500       14.29100
N          7.16900       18.03100       14.67600
N          6.87300       16.76700       14.80400
N          8.00400       16.10900       14.50400
N          2.75400       11.53600       11.59500
C          8.96700       17.00000       14.19600
C         10.34100       16.65600       13.74200
H         10.77600       16.08100       14.42100
H         10.87500       17.48600       13.65900
C         10.32700       15.93300       12.40800
C         11.09500       14.78700       12.20000
H         11.64700       14.45700       12.89900
C         11.05700       14.12400       10.98200
H         11.59300       13.35200       10.84700
C         10.24400       14.58000        9.96900
H         10.20000       14.11100        9.14400
C          9.50100       15.71200       10.15700
H          8.95900       16.04000        9.45000
C          9.53200       16.38900       11.36600
H          9.00300       17.16900       11.48300
C          8.07200       14.64900       14.67900
H          8.04500       14.43500       15.64600
H          8.93200       14.31700       14.31800
C          6.93900       13.95000       13.98500
C          7.05300       13.60800       12.64900
H          7.84400       13.82300       12.16800
C          6.01100       12.95000       12.01500
H          6.08300       12.71400       11.09800
C          4.86400       12.63700       12.72400
C          4.73600       12.97500       14.05200
H          3.94400       12.75600       14.52900
C          5.77200       13.63500       14.68200
H          5.68900       13.87700       15.59700
C          3.65900       11.97700       12.17200
C          3.54400       17.72600       16.65000
H          3.39500       16.99800       17.30300
H          2.80700       18.38200       16.74300
C          3.55200       17.15800       15.23500
H          2.63400       16.90400       14.96900
H          4.12000       16.34700       15.20200
C          6.25500       17.23400       17.62600
C          7.61900       17.51900       17.73300
H          7.93400       18.39400       17.53900
C          8.52300       16.53000       18.12200
H          9.44900       16.73200       18.18900
C          8.07000       15.26200       18.40900
H          8.68500       14.58500       18.66400
C          6.72700       14.97400       18.32500
H          6.41900       14.10300       18.54400
C          5.81400       15.94600       17.92300
H          4.89200       15.73000       17.85100
C          4.80500       19.56900       18.46700
C          5.43700       19.36800       19.68900
H          6.08100       18.67600       19.78100
C          5.13000       20.17500       20.77600
H          5.56700       20.03400       21.60700
C          4.19400       21.18200       20.65400
H          3.98500       21.72700       21.40400
C          3.56300       21.39900       19.44700
H          2.91900       22.09200       19.36400
C          3.87000       20.60400       18.36000
H          3.44200       20.76300       17.52700
C          4.64900       17.49000       12.57100
C          5.68100       17.93500       11.76000
H          6.16200       18.71800       12.00100
C          6.02100       17.25300       10.60000
H          6.73300       17.56800       10.05500
C          5.32600       16.11700       10.23700
H          5.56900       15.63900        9.45300
C          4.27400       15.67900       11.01800
H          3.77600       14.91400       10.75500
C          3.93900       16.35300       12.19100
H          3.22600       16.03600       12.73200
C          2.70600       19.34600       13.56400
C          2.14300       19.22300       12.29600
H          2.56600       18.68100       11.64100
C          0.96300       19.89300       11.98700
H          0.59400       19.81500       11.11500
C          0.32400       20.66800       12.92900
H         -0.49200       21.10500       12.71200
C          0.86800       20.80800       14.18600
H          0.43400       21.34500       14.83900
C          2.06000       20.15900       14.49300
H          2.44100       20.27200       15.35600
C          5.70700       21.46600       13.89600
H          5.18400       21.56200       13.04900
C          5.21600       21.69800       15.18300
H          4.29600       22.01200       15.41700
C          6.30200       21.53400       16.08100
H          6.27500       21.70100       17.06700
C          7.43800       21.18300       15.34000
H          8.36200       21.05200       15.69900
C          7.05400       21.14300       13.97800
H          7.66200       20.96800       13.20400
N          3.11000       11.43600       11.32800
C          3.92100       11.97700       11.88400
P          1.44900       13.99700       16.77300
F          1.70700       12.45100       16.51000
F          1.90600       14.30100       15.26600
F         -0.04500       13.82400       16.26200
F          1.16700       15.54700       16.97800
F          0.97900       13.68300       18.25600
F          2.93900       14.16800       17.25500
C          2.83500        9.22900       14.08900
H          2.47100       10.07800       13.73100
H          3.71900        9.07800       13.66900
Cl         1.74500        7.89700       13.64700
Cl         3.04600        9.38400       15.85100
C          2.33000        9.01300       13.47800
H          3.09700        9.05600       12.85300
H          1.62100        9.61000       13.13400
Cl         1.72300        7.36800       13.53400
Cl         2.83700        9.56700       15.04700
