73
C:\Users\Javier\OneDrive - Universitat de Barcelona\Tesi\4 - Contribucions\Treballs\3-PhD\chapter_1\cif\pc2p\WOVTEJ.pc2p.pdb
Pd         2.49100        0.57700        3.72300
S          2.92500       -1.03200        5.34100
S          0.81600       -0.76600        2.83800
P          2.25300        2.18400        2.12500
P          3.93300        2.03200        4.70000
C          1.66600        4.39800        7.91800
H          1.20700        4.88200        8.56600
C          4.38500        3.29200        3.45100
H          4.78400        4.06300        3.88300
H          5.02700        2.92500        2.82200
C         -2.82100       -2.65500        4.63800
H         -3.65100       -2.41100        4.21900
H         -2.80800       -3.60100        4.79300
H         -2.74100       -2.19400        5.47500
C          0.67300       -2.03900        4.06100
C          3.86600        2.58900       -0.17400
H          4.03900        3.44600        0.14500
C          1.18400        3.17900        7.49800
H          0.39700        2.84000        7.86000
C          0.00700        2.52100        0.45800
H          0.49500        2.09200       -0.20600
C          1.92600       -2.40100        4.81900
C          5.48800        1.46200        5.44200
C          4.16300        0.91000       -1.86500
H          4.54400        0.63600       -2.66800
C          7.86300        0.52200        6.54500
H          8.65700        0.21200        6.91800
C          3.53500        4.18700        6.42400
H          4.32500        4.52900        6.07200
C         -2.01900        3.59700        1.19300
H         -2.88600        3.88400        1.01600
C          3.10700        3.69400        2.72700
H          3.32100        4.27100        1.97700
H          2.52600        4.18100        3.33100
C         -0.16900        3.38300        2.70300
H          0.20000        3.51400        3.54700
C          3.31200       -4.00400        5.89400
H          3.95100       -3.27300        5.89900
H          3.74600       -4.77800        5.50400
C          6.66400        1.46000        4.69900
H          6.65900        1.76900        3.82300
C          1.86600        2.45400        6.53300
H          1.53400        1.63600        6.24600
C          3.05400        2.95400        5.99700
C          3.02600        1.73200        0.54400
C          0.57600        2.74500        1.71500
C         -1.29600        2.94300        0.20600
H         -1.68100        2.78800       -0.62600
C          4.44100        2.16300       -1.35800
H          5.02100        2.72800       -1.81700
C         -1.65800       -2.27100        3.72400
H         -1.74800       -2.72300        2.87000
H         -1.66500       -1.31400        3.56400
C          5.50700        0.96900        6.73400
H          4.72200        0.94800        7.23300
C          2.76300        0.45900        0.03100
H          2.21500       -0.12500        0.50200
C          2.83100        4.89800        7.37400
H          3.14600        5.72800        7.65100
C         -1.46100        3.82400        2.44000
H         -1.94700        4.26800        3.09700
C          3.31400        0.06300       -1.17400
H          3.11400       -0.77600       -1.52100
C          7.84600        0.99900        5.25900
H          8.63000        1.01200        4.76000
C          6.69400        0.50600        7.29000
H          6.70300        0.18500        8.16200
C          2.90800       -4.31400        7.28500
H          2.28500       -5.04600        7.28200
H          3.68500       -4.55000        7.79700
H          2.49300       -3.54200        7.67700
N         -0.39900       -2.66000        4.36400
N          2.14800       -3.62800        5.07000
