58
C:\Users\Javier\OneDrive - Universitat de Barcelona\Tesi\4 - Contribucions\Treballs\3-PhD\chapter_1\cif\pc2p\WUGDAD01.pc2p.pdb
Ru         2.91600        0.54900        2.17100
P          3.77700        2.22900        0.74800
P          3.50700        1.98500        3.93400
Cl         5.12600       -0.23500        2.31600
Cl         2.18600       -1.15000        3.75600
Cl         2.51600       -0.95500        0.30600
O          0.27500        1.67600        1.97600
N          1.30300        1.22000        2.05900
C          4.26800        3.62400        1.85200
H          4.99400        4.11500        1.44000
H          3.51700        4.23000        1.95100
C          4.70500        3.14900        3.22500
H          4.80000        3.91100        3.81600
H          5.57100        2.71500        3.15500
C          5.20200        1.83800       -0.30400
C          6.46100        2.09900        0.05400
H          6.63500        2.51400        0.86900
C          7.52700        1.74300       -0.80600
H          8.40300        1.87100       -0.52200
C          7.30500        1.23700       -1.98500
H          8.02100        1.05400       -2.55200
C          6.03200        0.97300       -2.39600
H          5.87500        0.59500       -3.23100
C          4.98100        1.27600       -1.55900
H          4.11100        1.10200       -1.83600
C          2.58800        2.94500       -0.41400
C          1.54600        2.21700       -0.94900
H          1.40200        1.34300       -0.66600
C          0.70400        2.78200       -1.91000
H          0.00300        2.28800       -2.26800
C          0.92100        4.05600       -2.31500
H          0.36400        4.43100       -2.95900
C          2.78400        4.25600       -0.83500
H          3.47500        4.76200       -0.47300
C          4.29200        1.41700        5.48800
C          4.76300        0.15000        5.68000
H          4.67400       -0.49100        5.01100
C          5.38300       -0.17700        6.89500
H          5.69400       -1.04400        7.02700
C          5.54000        0.73700        7.87100
H          5.96700        0.50700        8.66300
C          5.07000        1.99500        7.68700
H          5.18000        2.62900        8.35700
C          4.42600        2.35100        6.50100
H          4.08800        3.21100        6.39300
C          2.05400        2.90900        4.51900
C          1.95800        4.28300        4.45800
H          2.65100        4.79600        4.10900
C          0.78300        4.88900        4.93700
H          0.71200        5.81600        4.92600
C         -0.24900        4.15200        5.41600
H         -1.03300        4.57300        5.69100
C         -0.14200        2.78300        5.49500
H         -0.84300        2.28200        5.84600
C          1.01000        2.14800        5.04700
H          1.08600        1.22200        5.10100
C          1.95200        4.81000       -1.79100
H          2.08800        5.68300       -2.08100
