98
C:\Users\Javier\OneDrive - Universitat de Barcelona\Tesi\4 - Contribucions\Treballs\3-PhD\chapter_1\cif\pc2p\WUJZEG.pc2p.pdb
Rh         2.51500       -2.31200        3.04300
Cl         1.47100       -2.07800        0.88600
Cl        -0.32300       -6.15200       10.71000
Cl         1.98400       -6.49900        8.95900
S         -0.60000       -3.65900        2.84800
P          1.52000       -0.29800        3.42400
P          4.26100       -1.00100        2.20700
F          3.84800        4.27600       -1.62400
F          3.22600        4.38900        0.55200
F          4.07500        2.48300       -0.29800
F          5.39200        4.28800       -0.01700
F          4.23400        3.75600       -1.76400
F          3.76600        4.83500        0.11900
F          3.20200        2.74400       -0.07800
F          5.32600        3.25800        0.21500
C          3.79100       -4.15100        3.47900
C          2.40600       -4.57700        2.88700
C         -1.74800       -4.55200        3.90100
C         -0.53900       -4.76300        1.40900
C          2.22800        0.86300        2.19300
C          3.74500        0.76000        2.30600
C         -0.28100       -0.34700        3.28500
C         -1.02700       -0.81300        4.37500
C         -2.39400       -1.04100        4.23800
C         -3.02300       -0.77500        3.03500
C         -2.29900       -0.25600        1.97400
C         -0.92900       -0.05600        2.08700
C          1.81200        0.63500        4.96300
C          2.92000        0.39200        5.79000
C          3.18500        1.25500        6.84800
C          2.36200        2.34000        7.09100
C          1.26400        2.56300        6.29600
C          0.98900        1.72600        5.22400
C          4.75900       -1.30300        0.47700
C          5.54400       -0.34400       -0.17000
C          5.98900       -0.57600       -1.46300
C          5.63200       -1.73800       -2.11800
C          4.85800       -2.68800       -1.48000
C          4.43800       -2.47900       -0.18000
C          5.84500       -1.16000        3.07500
C          6.24500       -0.32300        4.11300
C          7.44000       -0.54800        4.77100
C          8.23500       -1.63000        4.43800
C          7.86100       -2.47100        3.42300
C          6.69100       -2.25500        2.75300
C          1.41300       -6.53900       10.63000
B          2.56400       -5.69200        5.39400
B          4.05100       -4.76300        5.02600
B          3.29300       -5.75700        3.77200
B          1.54500       -5.59400        3.96200
B          1.19800       -4.55700        5.36400
B          2.77400       -4.03200        6.01900
B          1.09800       -3.87600        3.72100
B          1.80300       -2.88500        5.05700
B          3.62300       -3.02400        4.79700
B          4.16600        3.74200       -0.36300
H          2.50200       -6.49800        5.94400
H          5.01800       -4.95700        5.38200
H          3.76700       -6.52300        3.24500
H          0.94200       -6.33600        3.56900
H          0.44100       -4.64800        6.04000
H          3.06100       -3.91600        6.98800
H          4.51800       -4.06400        2.94700
H          2.36900       -4.75700        1.99700
H          1.41300       -2.14600        5.52200
H          4.46800       -2.46700        5.16200
H         -1.41300       -5.30400        3.96000
H         -2.48700       -4.50400        3.57200
H         -1.79500       -4.13200        4.69300
H          0.04400       -4.30100        0.79500
H         -1.32400       -4.73200        1.07000
H         -0.39700       -5.66600        1.66000
H          1.95700        1.78600        2.39300
H          1.88700        0.56700        1.33600
H          4.04700        1.08800        3.25800
H          4.19400        1.24400        1.69400
H         -0.57400       -0.91100        5.17200
H         -2.89900       -1.37300        4.99100
H         -3.98800       -1.02400        2.92200
H         -2.59000       -0.09300        1.18400
H         -0.48600        0.29200        1.39100
H          3.45800       -0.39700        5.64100
H          3.87000        1.10800        7.32200
H          2.51600        2.89300        7.77500
H          0.70600        3.17400        6.47000
H          0.19100        1.87300        4.70300
H          5.79800        0.49500        0.24900
H          6.57800        0.08200       -1.97400
H          5.93100       -1.93000       -3.09200
H          4.63600       -3.44800       -1.80500
H          3.94400       -3.03000        0.10600
H          5.78300        0.33500        4.39000
H          7.69600        0.15600        5.34100
H          9.02100       -1.77400        4.84300
H          8.41800       -3.24600        3.20400
H          6.49000       -2.79600        1.95000
H          1.44200       -7.38000       10.95100
H          1.84000       -6.00100       11.02800
