200
C:\Users\Javier\OneDrive - Universitat de Barcelona\Tesi\4 - Contribucions\Treballs\3-PhD\chapter_1\cif\pc2p\WULNAV.pc2p.pdb
Rh         4.30900       13.06100        4.76000
P          4.99100       13.19500        6.88000
P          6.49200       12.94900        4.26600
C          7.00200       11.49400        3.24000
H          6.53600       11.57600        2.38200
C          6.80900       13.42800        6.98700
H          7.01100       14.37600        7.02200
H          7.13800       13.02100        7.80400
C          7.26000       14.38400        3.37700
H          8.23100       14.25600        3.41900
C          4.66300       11.73100        7.97000
H          5.15600       11.87500        8.80400
C          7.52000       12.80300        5.78900
H          7.69700       11.86700        5.97100
H          8.37000       13.24800        5.65000
C          6.89000       14.47300        1.89900
H          5.93600       14.62200        1.81100
H          7.10800       13.63700        1.45800
C          4.29600       14.62100        7.82200
H          3.33100       14.46500        7.89900
C          4.47100       15.95800        7.08600
H          5.41600       16.15400        6.99300
H          4.09000       15.88900        6.19600
C          4.13800       15.86500       10.00200
H          3.19400       15.65800       10.08400
H          4.50800       15.93700       10.89600
C          7.65300       15.61700        1.23100
H          8.60500       15.43900        1.27300
H          7.39800       15.67300        0.29700
C          4.84200       14.73600        9.25200
H          4.70300       13.89900        9.72100
H          5.79500       14.91100        9.22200
C          3.19400       11.58100        8.33900
H          2.66600       11.48400        7.53100
H          2.89300       12.38000        8.79900
C          4.30200       17.19200        9.28100
H          5.23900       17.44400        9.27400
H          3.80900       17.88100        9.75500
C          2.97400       10.36000        9.24100
H          3.44500       10.49000       10.07800
H          2.02800       10.27300        9.43900
C          5.20400       10.44000        7.34200
H          4.79000       10.31000        6.47400
H          6.16000       10.53000        7.20500
C          4.93600        9.21100        8.21400
H          5.21800        8.41400        7.73800
H          5.46100        9.27500        9.02700
C          7.35600       16.94700        1.91400
H          7.88200       17.64800        1.49900
H          6.41800       17.16600        1.80100
C          3.78800       17.09400        7.84400
H          2.83000       16.94200        7.85500
H          3.95400       17.93100        7.38500
C          8.83300       10.25100        2.03600
H          8.39100       10.35600        1.17800
H          9.78900       10.22600        1.87800
C          8.49800       11.44700        2.92600
H          8.76000       12.26600        2.47800
H          9.00000       11.38400        3.75300
C          6.95600       15.71400        4.08000
H          6.00000       15.87600        4.06300
H          7.23500       15.65900        5.00800
C          6.54700       10.17100        3.86400
H          6.96200       10.07000        4.73400
H          5.58600       10.19500        3.99300
C          8.39100        8.93900        2.67500
H          8.57800        8.20400        2.06900
H          8.89200        8.79100        3.49100
C          3.46800        9.08600        8.57500
H          3.34500        8.33600        9.17800
H          2.94900        8.91600        7.77300
C          6.90700        8.96600        2.99100
H          6.66200        8.14900        3.45400
H          6.40200        9.00500        2.16400
C          7.68400       16.87700        3.39700
H          7.42800       17.71000        3.82100
H          8.64100       16.76600        3.50800
F          3.94300       13.04200        1.49200
C          3.34500       13.05300        2.67400
C          3.02500       11.79400        3.25300
H          3.24100       10.99600        2.82900
C          2.36200       11.80800        4.50300
H          2.12900       11.01000        4.91800
C          2.05700       13.04800        5.11900
H          1.66600       13.05300        5.96100
C          2.33900       14.28500        4.47300
H          2.09000       15.08700        4.87400
C          2.98900       14.29300        3.22900
H          3.17800       15.09000        2.78800
F          3.40300       15.07400        2.22800
C          3.05500       14.04400        3.01400
C          2.45800       14.32800        4.11400
H          2.28900       15.21700        4.32900
C          2.09300       13.41600        4.90200
H          1.65100       13.63500        5.70100
C          2.31200       12.18900        4.61900
H          2.07600       11.51400        5.22400
C          2.86400       11.89100        3.52500
H          2.93400       11.00700        3.24500
C          3.34600       12.82500        2.77500
H          3.90300       12.61200        2.06400
Al        13.86600       13.18200        8.04100
O         14.26300       14.41400        6.92100
F         12.78600       15.16300        3.76800
F         13.11100       17.33600        5.37400
F         12.82000       16.58900        7.31900
C         13.98800       15.17000        5.85000
F         15.21700       16.24000        4.10800
F         12.82300       13.37400        4.92600
F         14.79900       17.19800        6.74200
F         15.31000       14.03200        4.31100
F         11.64700       14.96100        5.63100
F         16.33000       15.40200        5.71400
C         12.87100       14.63700        4.97300
C         15.28200       15.25600        5.01800
C         13.61300       16.56300        6.31400
O         12.25500       13.49000        8.56400
C         11.12100       13.01000        9.09100
C         10.05700       14.12700        9.00800
F         10.54500       15.28300        9.42500
F          8.96100       13.86400        9.73700
F          9.65400       14.30400        7.74800
C         10.61400       11.77100        8.29500
F         11.28700       10.68000        8.62900
F         10.78200       11.96300        6.98900
F          9.31000       11.53600        8.49800
C         11.31400       12.62000       10.58600
F         12.45900       11.96100       10.73200
F         10.33000       11.81900       11.02400
F         11.33300       13.69400       11.36800
O         13.88900       11.58200        7.41800
C         14.63500       10.53700        6.97900
C         13.74900        9.68300        6.03900
F         12.91000        8.94300        6.63400
F         14.68600        8.88500        5.35000
F         13.09900       10.42600        5.19200
C         15.90700       10.98900        6.15800
F         16.48200       12.03400        6.82900
F         15.55800       11.36100        4.96700
F         16.86800       10.08900        6.12000
C         15.12200        9.68300        8.16400
F         16.16200       10.20700        8.76500
F         15.47800        8.47600        7.83900
F         14.15200        9.59100        9.07300
O         14.99900       13.23400        9.33000
C         15.68900       13.97600       10.25400
C         16.22700       12.94800       11.31400
F         15.36400       12.02200       11.60700
F         16.58200       13.55300       12.46400
F         17.33500       12.32400       10.80300
C         16.87800       14.74400        9.64200
F         16.36800       15.83500        8.95600
F         17.51700       14.00400        8.70200
F         17.77000       15.16000       10.53800
C         14.76800       15.00200       10.92900
F         14.00100       15.59100       10.04500
F         15.43700       15.98200       11.58100
F         14.00400       14.35300       11.82200
O         12.28500       12.74300        8.57500
C         11.12600       12.99200        9.24300
C         10.52500       14.34200        8.74700
F         11.43900       15.30900        8.70400
F          9.52200       14.75500        9.51900
F         10.08200       14.22000        7.50700
C         10.09600       11.85600        8.92900
F         10.44700       10.75600        9.61400
F         10.01800       11.57100        7.65100
F          8.86500       12.19900        9.29800
C         11.34800       13.03900       10.77900
F         12.08400       12.02200       11.20400
F         10.19500       12.92900       11.41500
F         11.94000       14.17900       11.11100
O         14.30500       11.72400        7.26000
C         14.67500       10.50500        7.02900
C         14.05900       10.08800        5.73300
F         12.68300       10.35300        5.87200
F         14.33000        8.75100        5.34000
F         14.63000       10.76500        4.66900
C         16.16200       10.76500        6.90400
F         16.64900       10.78800        8.19200
F         16.29700       11.94700        6.17600
F         16.59900        9.80700        6.01000
C         14.41200        9.47200        8.07600
F         14.67600       10.02300        9.30600
F         15.20900        8.35200        7.87600
F         13.16800        8.92300        7.82500
O         14.89700       13.69700        9.26600
C         15.78600       14.10700       10.05800
C         16.22400       13.05000       11.02800
F         15.01900       12.44100       11.36000
F         16.67400       13.82000       12.11800
F         17.14800       12.38200       10.18700
C         17.01700       14.43400        9.25300
F         16.72100       15.75100        8.88500
F         17.13900       13.43700        8.29500
F         18.06800       14.20700       10.14500
C         15.28800       15.28400       10.82900
F         16.47100       15.97200       11.16600
F         14.54500       14.76700       11.92900
F         14.54900       16.11700        9.98100
