99
C:\Users\Javier\OneDrive - Universitat de Barcelona\Tesi\4 - Contribucions\Treballs\3-PhD\chapter_1\cif\pc2p\XAFVUW.pc2p.pdb
Ru        11.77300        2.86000        0.77300
Fe        18.63100        2.30400        5.59800
P         12.18200        1.42400       -0.90700
C         10.75100        1.25300       -2.04700
C         10.73900        1.84700       -3.30600
C          9.63000        1.75200       -4.12400
C          8.50000        1.06900       -3.71400
C          8.49800        0.48400       -2.44600
C          9.59500        0.59600       -1.61900
C         13.53900        1.74900       -2.08100
C         14.18100        2.97600       -2.06600
C         15.15600        3.27100       -3.03500
C         15.51400        2.32100       -3.96200
C         14.89500        1.06700       -3.94800
C         13.91100        0.78400       -3.02000
C         12.51100       -0.30000       -0.29400
C         12.71000       -0.28500        1.22700
P         11.57600        0.95800        1.97000
C          9.95500        0.10900        1.99300
C          9.79600       -1.21000        1.57300
C          8.53300       -1.78500        1.51100
C          7.41700       -1.07200        1.91600
C          7.56700        0.21400        2.36900
C          8.81300        0.80300        2.39600
C         12.01900        0.96700        3.74600
C         12.66900        2.05700        4.29700
C         13.05500        2.04300        5.64200
C         12.79400        0.93300        6.42300
C         12.13100       -0.14200        5.89100
C         11.74500       -0.13600        4.54900
C         13.68300        2.73800        1.28000
C         14.82900        2.74100        1.71200
C         16.02400        2.84300        2.38200
C         17.01800        2.96800        3.01800
C         11.78400        5.06200        0.34100
C         10.79000        4.44800       -0.45800
C          9.80600        3.88800        0.39600
C         10.21100        4.15600        1.73300
C         11.42700        4.88100        1.70200
C         18.22700        3.11800        3.76000
C         18.51700        4.14000        4.72200
C         19.82000        3.90900        5.24400
C         20.34800        2.75700        4.61200
C         19.36600        2.26100        3.70000
C         16.93000        1.35200        6.26500
C         17.39800        2.28200        7.22400
C         18.72700        1.91300        7.59900
C         19.08800        0.75300        6.84700
C         17.96500        0.41200        6.02600
H         11.50400        2.33900       -3.60100
H          9.63900        2.16800       -4.99100
H          7.73500        0.99800       -4.28100
H          7.72100        0.01600       -2.14300
H          9.56400        0.21900       -0.74000
H         13.95700        3.62900       -1.40500
H         15.57100        4.12600       -3.03500
H         16.18700        2.51500       -4.61000
H         15.14900        0.41800       -4.59500
H         13.47200       -0.07000       -3.02600
H         11.76700       -0.86600       -0.49900
H         13.28900       -0.65500       -0.71500
H         13.62000       -0.04300        1.42800
H         12.53900       -1.14200        1.59800
H         10.56400       -1.71600        1.31900
H          8.44700       -2.68800        1.19900
H          6.54600       -1.47500        1.87000
H          6.80000        0.70700        2.65000
H          8.89900        1.71200        2.71100
H         12.87400        2.82100        3.74600
H         13.50500        2.80100        6.01500
H         13.06700        0.91100        7.35000
H         11.92400       -0.90100        6.44300
H         11.28400       -0.89500        4.18400
H         12.56200        5.51000        0.00300
H         10.77500        4.41400       -1.41800
H          9.01200        3.41400        0.12500
H          9.73200        3.88200        2.52000
H         11.92300        5.19900        2.45800
H         17.93300        4.86000        4.97100
H         20.27300        4.42300        5.91500
H         21.21400        2.37700        4.74800
H         19.45100        1.48900        3.14300
H         16.06900        1.35200        5.84600
H         16.91800        3.02400        7.58500
H         19.27100        2.37000        8.24100
H         19.93800        0.30300        6.89600
H         17.92700       -0.31800        5.41500
C          8.82200        7.10600        5.87800
C          9.53900        6.17900        5.11700
C          9.80500        4.90500        5.62800
C          9.35500        4.55600        6.90300
C          8.63900        5.48200        7.67100
C          8.37000        6.75600        7.16000
H          8.64300        7.97000        5.53300
H          9.84300        6.41300        4.24800
H         10.29200        4.27600        5.10800
H          9.53600        3.69000        7.25200
H          8.33200        5.24800        8.53900
H          7.88200        7.38500        7.68000
