107
C:\Users\Javier\OneDrive - Universitat de Barcelona\Tesi\4 - Contribucions\Treballs\3-PhD\chapter_1\cif\pc2p\XAFWOR.pc2p.pdb
Ru         3.03300       13.57200        5.35800
Fe         6.72300        7.77400        2.15700
P          5.32100       13.66000        5.39900
C          6.04300       15.30600        5.82900
C          7.29700       15.39300        6.40900
C          7.90300       16.62600        6.60200
C          7.23300       17.78000        6.22200
C          5.99000       17.71100        5.64700
C          5.38800       16.47600        5.46500
C          6.31600       12.56200        6.44800
C          7.41100       11.83600        5.96500
C          8.15500       11.03000        6.81200
C          7.83100       10.94100        8.15400
C          6.76000       11.65800        8.64400
C          5.99000       12.45000        7.80400
C          5.97700       13.48100        3.69000
C          5.12700       14.35300        2.77200
P          3.32600       14.10100        3.12600
C          2.50300       15.67700        2.69900
C          3.19600       16.87000        2.48100
C          2.51300       18.06900        2.37000
C          1.14500       18.09500        2.43400
C          0.43200       16.92200        2.60800
C          1.11200       15.72000        2.73100
C          2.84800       12.97200        1.75900
C          3.36200       11.68100        1.75800
C          3.02000       10.77000        0.77100
C          2.17100       11.16300       -0.25300
C          1.67900       12.44600       -0.29500
C          2.01600       13.35600        0.70700
C          2.81400       11.57200        4.98800
C          1.76500       10.97200        4.36100
C          0.69200       11.71400        3.76800
N         -0.19100       12.29900        3.31700
C          1.72000        9.53700        4.14900
N          1.73000        8.41200        3.97100
C          3.81900       10.62900        5.53500
C          3.73500       10.09500        6.79100
C          2.63000       10.35700        7.66100
N          1.76200       10.54300        8.36600
C          4.73700        9.18500        7.26900
N          5.52800        8.44600        7.63200
C          4.87700       10.26400        4.69000
C          5.74500        9.94400        3.92300
C          2.35600       13.79600        7.47600
C          2.80300       15.04800        7.01500
C          1.98300       15.45600        5.94200
C          0.99800       14.43600        5.73900
C          1.23100       13.42700        6.68400
C          6.76100        9.58800        3.01500
C          7.96300        8.87000        3.33300
C          8.61900        8.57400        2.11400
C          7.85000        9.10000        1.04800
C          6.70100        9.73100        1.58900
C          5.48400        6.56900        3.22900
C          6.64800        5.86800        2.87100
C          6.71700        5.85000        1.47900
C          5.61600        6.54200        0.95900
C          4.84200        7.00900        2.05400
H          7.74900       14.59300        6.70200
H          8.78300       16.67400        6.97200
H          7.62000       18.64100        6.36000
H          5.52600       18.51600        5.38600
H          4.50000       16.42500        5.09000
H          7.63800       11.89900        5.04500
H          8.87700       10.52100        6.46200
H          8.34600       10.39800        8.73700
H          6.53700       11.61200        9.57100
H          5.25500       12.94000        8.15200
H          6.88400       13.75000        3.65700
H          5.91500       12.56500        3.41300
H          5.30800       14.12000        1.86200
H          5.36000       15.26400        2.90600
H          4.16300       16.84200        2.41000
H          3.00900       18.88200        2.26300
H          0.67700       18.92400        2.34400
H         -0.52600       16.94700        2.65300
H          0.62500       14.88900        2.85300
H          3.96500       11.41400        2.45000
H          3.36200        9.87900        0.78700
H          1.92400       10.54900       -0.94700
H          1.09800       12.70100       -1.00200
H          1.67400       14.25900        0.66900
H          2.72200       13.28900        8.18300
H          3.54600       15.54500        7.36200
H          2.06900       16.26400        5.43600
H          0.30400       14.44100        5.06900
H          0.71500       12.62000        6.78300
H          8.25000        8.64000        4.21200
H          9.45500        8.09200        2.02200
H          8.06900        9.04700        0.11900
H          6.00500       10.17300        1.10000
H          5.17400        6.71700        4.12200
H          7.28300        5.46100        3.47000
H          7.40300        5.43600        0.95900
H          5.45000        6.68400        0.02900
H          4.03300        7.53700        2.01200
C          1.01900        6.96000        6.96000
C          0.80700        5.94300        7.96900
O          1.31300        4.87700        7.81100
C         -0.03600        6.24200        9.11300
H          1.60300        7.62900        7.29100
H          1.39900        6.55300        6.19200
H          0.17600        7.36500        6.70200
H          0.47000        6.60700        9.85100
H         -0.52100        5.49400        9.42100
H         -0.70100        6.91300        8.88700
