113
C:\Users\Javier\OneDrive - Universitat de Barcelona\Tesi\4 - Contribucions\Treballs\3-PhD\chapter_1\cif\pc2p\XAFXEI.pc2p.pdb
Ru         7.59700        9.90200        5.76200
Fe         5.66100        9.45100       -1.32800
I          5.25900        9.53200        7.12600
P          7.21600       12.15600        5.91500
C          8.49800       13.30600        5.27300
C          9.22200       12.98100        4.14800
C         10.22400       13.80500        3.64900
C         10.50500       14.99300        4.29200
C          9.81100       15.33900        5.44700
C          8.80900       14.51400        5.93500
C          5.70000       12.87100        5.20700
C          4.97500       12.15200        4.27100
C          3.85600       12.72700        3.66000
C          3.46400       13.98900        3.97500
C          4.17900       14.72500        4.91900
C          5.29800       14.17300        5.53800
C          7.18000       12.56400        7.70600
C          8.42700       11.98600        8.35400
P          8.83800       10.33400        7.60800
C         10.64300       10.43200        7.28000
C         11.19000       11.59000        6.71200
C         12.54400       11.65700        6.38500
C         13.36500       10.58700        6.64100
C         12.83800        9.43100        7.17400
C         11.47800        9.34500        7.49300
C          8.78600        9.20200        9.04100
C          8.01300        8.04300        9.01300
C          7.93700        7.25000       10.16400
C          8.61500        7.60600       11.31100
C          9.40800        8.72300       11.33500
C          9.49900        9.53900       10.20100
C          5.73700        8.74500        3.25500
C          4.70600        8.74500        2.64500
C          3.51300        8.66300        1.86900
N          2.40700        7.86800        2.52000
C          1.33900        7.47000        1.50900
C          0.21800        6.61900        2.08400
C          1.79800        8.74400        3.61600
C          1.01700        9.92300        3.11100
C          2.98500        6.61900        3.16800
C          3.65300        5.67700        2.21500
C          3.33000        9.25500        0.67200
C          6.99300        8.76500        3.91000
C          8.08600        9.64000        3.60800
C          9.19800        9.26200        4.41300
C          8.81100        8.14500        5.21400
C          7.46000        7.84600        4.93600
C          4.24300       10.13100       -0.04600
C          3.95400       10.55700       -1.39100
C          5.03100       11.33500       -1.85400
C          5.99300       11.40700       -0.82400
C          5.52400       10.66900        0.28800
C          5.94700        7.46100       -0.98400
C          5.30300        7.67200       -2.22300
C          6.19000        8.45100       -3.01900
C          7.33400        8.70900       -2.26800
C          7.19500        8.10200       -0.99900
H          9.03100       12.13900        3.69200
H         10.74200       13.56900        2.87000
H         11.17200       15.60900        3.94900
H         10.01400       16.14200        5.91600
H          8.31400       14.75800        6.72600
H          5.22800       11.24900        4.06300
H          3.37200       12.21400        2.99300
H          2.67800       14.38000        3.57200
H          3.91300       15.61600        5.13000
H          5.78900       14.69200        6.19100
H          7.16300       13.51100        7.81800
H          6.40100       12.19100        8.10600
H          8.27200       11.88500        9.29100
H          9.15600       12.58700        8.22500
H         10.61700       12.34600        6.54400
H         12.90500       12.45500        5.99000
H         14.30600       10.64400        6.41900
H         13.40400        8.66300        7.33500
H         11.11100        8.52600        7.84800
H          7.54300        7.78900        8.20100
H          7.38800        6.45000       10.16100
H          8.54500        7.06700       12.09700
H          9.89500        8.93400       12.13000
H         10.06000       10.33400       10.21100
H          1.74100        7.00100        0.79700
H          0.93300        8.27400        1.16200
H         -0.41500        6.40400        1.41700
H         -0.21300        7.08100        2.79700
H          0.59500        5.80700        2.43200
H          2.50100        9.04400        4.19400
H          1.20400        8.19200        4.15100
H          0.67100       10.43100        3.82700
H          0.31400        9.62900        2.54900
H          1.61000       10.48100        2.59200
H          2.26600        6.13800        3.61000
H          3.61400        6.87000        3.83900
H          4.00300        4.89400        2.63900
H          4.38800        6.10800        1.75400
H          3.03900        5.37500        1.52400
H          2.49700        9.05100        0.23200
H          8.07700       10.35200        2.97400
H         10.05800        9.68100        4.41900
H          9.38900        7.67000        5.83200
H          6.93700        7.14800        5.35600
H          3.16900       10.33200       -1.89800
H          5.11300       11.74100       -2.72300
H          6.81700       11.88400       -0.87200
H          6.01500       10.53600        1.10800
H          5.59500        6.95300       -0.24500
H          4.43700        7.32600       -2.45000
H          6.01100        8.78400       -3.92300
H          8.11500        9.18500       -2.57800
H          7.83500        8.15800       -0.26600
I         12.44500        7.38100       -2.15600
I         11.05700        9.81200       -0.95500
I          9.76300       12.05900        0.19100
