50
C:\Users\Javier\OneDrive - Universitat de Barcelona\Tesi\4 - Contribucions\Treballs\3-PhD\chapter_1\cif\pc2p\XAJPIH.pc2p.pdb
C          0.81700        3.47800       10.35900
C          2.12600        4.27000       10.48900
C          0.33400        3.99500       15.01300
C         -0.07100        6.85500       13.67400
C         -1.58400        2.43900       11.63500
C         -1.69100        1.56100       10.37800
C         -0.89900        1.61500       12.71800
C         -2.99100        2.76900       12.13900
C         -1.58000        5.22200       10.30400
C         -0.56100        6.22100        9.74600
C         -2.29300        4.56400        9.10600
C         -2.59400        5.99200       11.14700
C          3.65400        6.29000       11.92800
C          2.70900        7.45000       11.61500
C          4.41900        6.64700       13.21700
C          4.64800        6.18300       10.76600
C          3.68000        3.34000       12.82300
C          5.03200        3.21200       12.13900
C          3.89400        3.44900       14.34000
C          2.90500        2.03900       12.57100
O          0.26600        3.50000       16.03300
O         -0.41100        7.90300       13.93000
P         -0.59300        4.04600       11.42700
P          2.57700        4.75800       12.23300
Pd         0.46700        5.00500       13.36100
C          5.54800        8.48000       16.90200
C          4.21500        8.97600       17.48400
C          5.37800        5.05500       20.11500
C          5.73000        7.81800       21.69700
C          7.87200        9.24600       18.55400
C          8.75200        8.86800       19.76600
C          8.76900        9.76300       17.42200
C          6.94900       10.39100       18.99800
C          7.68100        6.51900       17.07400
C          8.11500        7.03000       15.68700
C          6.76500        5.32500       16.84500
C          8.91000        6.02800       17.84600
C          2.29400        6.76000       18.00100
C          3.15200        5.97800       16.99800
C          1.12900        7.39100       17.22600
C          1.75400        5.75000       19.01500
C          2.42800        9.30500       19.73800
C          1.70300       10.28500       18.79700
C          3.36500       10.11000       20.64200
C          1.38400        8.62900       20.65400
O          5.48300        3.92500       20.24900
O          5.89800        8.24400       22.73000
P          6.73700        7.78100       18.14400
P          3.46800        7.97700       18.86000
Pd         5.36600        6.98800       19.96600
