94
C:\Users\Javier\OneDrive - Universitat de Barcelona\Tesi\4 - Contribucions\Treballs\3-PhD\chapter_1\cif\pc2p\XAWDUU.pc2p.pdb
Ru         9.51800        3.24600       11.86700
S         10.12800        7.30600        9.63100
P          8.35700        1.70800       10.65800
P         11.34900        2.24200       10.88100
N          7.49600        7.68200        8.98900
N         12.85000        5.69900       11.42600
C          9.37900        4.96800       10.65300
C          8.21000        5.64500       10.14400
C          8.45700        6.88500        9.57500
C         10.47300        5.80700       10.47500
C         11.77900        5.69900       11.00100
C          6.77000        5.25800       10.25400
C          6.05300        5.55000       11.41600
C          4.68900        5.35700       11.49100
C          3.99500        4.88000       10.40200
C          4.67900        4.60900        9.24200
C          6.05500        4.79300        9.15600
C          7.43200        9.06800        8.77800
C          8.39400        9.96000        9.20600
C          8.26200       11.31200        8.92900
C          7.19200       11.79600        8.24100
C          6.22300       10.91100        7.82800
C          6.33600        9.56300        8.09900
C          9.45600        0.22600       10.53000
C         10.80900        0.69300       10.01200
C          6.82200        1.03800       11.39300
C          5.71900        1.88500       11.47500
C          4.50800        1.42200       11.94700
C          4.38300        0.13300       12.36100
C          5.45600       -0.71400       12.31300
C          6.66900       -0.26600       11.82600
C          7.86100        1.89800        8.90000
C          6.76200        1.24900        8.35600
C          6.47200        1.36700        7.00500
C          7.27100        2.10500        6.18000
C          8.35200        2.76000        6.69500
C          8.63600        2.66900        8.04800
C         12.51900        2.78100        9.55500
C         12.13700        3.65800        8.55200
C         12.95500        3.88000        7.45700
C         14.14900        3.23300        7.33800
C         14.55400        2.36900        8.31700
C         13.74400        2.14300        9.41500
C         12.52000        1.66700       12.17300
C         12.51200        0.37200       12.66200
C         13.29000        0.03000       13.77500
C         14.05100        0.98500       14.39400
C         14.08100        2.26800       13.90700
C         13.33100        2.61000       12.80500
C         10.33100        4.05100       13.79300
C         10.11100        2.66500       13.94500
C          8.74100        2.40700       13.78700
C          8.09800        3.65200       13.53700
C          9.08900        4.65300       13.54900
H          6.81000        7.25100        8.70200
H          6.50700        5.88300       12.15800
H          4.23500        5.55000       12.28100
H          3.07600        4.74400       10.45000
H          4.21300        4.29800        8.50200
H          6.49800        4.60500        8.36100
H          9.13400        9.65300        9.67800
H          8.91800       11.90200        9.22200
H          7.11800       12.70300        8.05500
H          5.48300       11.22400        7.36100
H          5.66700        8.98100        7.82000
H          9.55700       -0.19200       11.40000
H          9.07100       -0.42300        9.92100
H         10.75000        0.86200        9.05900
H         11.46800       -0.00400       10.15500
H          5.80100        2.77100       11.20800
H          3.77500        1.99300       11.98000
H          3.56400       -0.17500       12.67900
H          5.37000       -1.59100       12.60900
H          7.39200       -0.85000       11.78900
H          6.21500        0.73300        8.90100
H          5.72300        0.94000        6.65700
H          7.08000        2.16000        5.27200
H          8.89700        3.26900        6.14000
H          9.36300        3.13600        8.39200
H         11.32200        4.10200        8.61500
H         12.68800        4.47800        6.79500
H         14.68600        3.37700        6.59200
H         15.37400        1.93600        8.24600
H         14.02600        1.55100       10.07600
H         11.98600       -0.27300       12.25100
H         13.29100       -0.84300       14.09300
H         14.54900        0.76300       15.14600
H         14.61000        2.91000       14.32400
H         13.36500        3.47900       12.47800
H         11.18500        4.51600       13.91200
H         10.79200        2.00100       14.17800
H          8.29800        1.53900       13.90200
H          7.13200        3.79600       13.45200
H          8.92800        5.61500       13.46100
