89
C:\Users\Javier\OneDrive - Universitat de Barcelona\Tesi\4 - Contribucions\Treballs\3-PhD\chapter_1\cif\pc2p\XAXWIE.pc2p.pdb
Rh        -0.49900        8.06600        2.30700
P          1.15900        9.37500        3.26700
P         -1.44100       10.10600        1.72500
C         -1.74500        7.15000        1.19100
O         -2.40700        6.58000        0.49300
C          0.33000        6.45500        2.80200
O          0.78200        5.45200        3.06600
C         -1.62200        7.63600        4.18300
O         -2.19200        7.18200        5.00500
C          0.61600       11.11200        3.25200
H          0.08700       11.29600        4.06700
H          1.40900       11.70400        3.26100
C         -0.22200       11.41700        2.03200
H          0.36800       11.50800        1.24200
H         -0.69300       12.27800        2.16400
C          1.85000        9.21300        4.98400
H          1.85700       10.13900        5.36200
C          3.32400        8.83300        4.78300
H          3.86000        9.10800        5.56900
H          3.41400        7.85400        4.66600
C          3.80300        9.55800        3.53800
H          4.71200        9.25400        3.28500
H          3.82500       10.53600        3.68900
C          2.80000        9.20600        2.45100
H          2.91800        8.22800        2.27900
C         -2.13600       10.60500        0.07000
H         -1.84000       11.55100       -0.05300
C         -3.65300       10.69900        0.31200
H         -4.07900       11.26500       -0.37800
H         -4.06500        9.80000        0.28400
C         -3.82400       11.31700        1.67900
H         -4.77800       11.32800        1.93800
H         -3.48100       12.24600        1.68600
C         -3.01100       10.43500        2.65000
H         -3.49200        9.56000        2.69400
C          1.05200        8.38400        5.95400
C          1.17100        7.00600        5.99500
H          1.76600        6.56800        5.39800
C          0.43700        6.26300        6.89400
H          0.52300        5.31700        6.90800
C         -0.42000        6.88800        7.77300
H         -0.92300        6.37500        8.39400
C         -0.54100        8.25700        7.74800
H         -1.12000        8.69700        8.36000
C          0.18400        8.99300        6.82700
H          0.07900        9.93600        6.79800
C          2.96800        9.88300        1.10700
C          3.10800       11.24800        0.97200
H          3.08500       11.80300        1.74300
C          3.28100       11.81600       -0.27600
H          3.38000       12.75800       -0.35700
C          3.30800       11.03300       -1.39300
H          3.41800       11.43100       -2.25000
C          3.18000        9.69000       -1.28400
H          3.21000        9.14200       -2.05900
C          3.00700        9.12400       -0.03700
H          2.91200        8.18200        0.03200
C         -1.65200        9.89500       -1.15700
C         -0.45400       10.29100       -1.74300
H          0.06900       10.96600       -1.32600
C         -0.01400        9.72300       -2.91100
H          0.80400       10.00900       -3.29800
C         -0.75600        8.74200       -3.51900
H         -0.45000        8.34700       -4.32700
C         -1.93400        8.33300       -2.96200
H         -2.44800        7.65500       -3.38500
C         -2.38200        8.90500       -1.78400
H         -3.20100        8.61200       -1.40200
C         -2.86800       10.89600        4.06700
C         -3.17500       10.03000        5.11800
H         -3.49200        9.15600        4.92300
C         -3.03100       10.41400        6.42500
H         -3.25700        9.80800        7.12100
C         -2.57000       11.65300        6.73600
H         -2.45000       11.90900        7.64300
C         -2.27600       12.53300        5.71700
H         -1.95800       13.40300        5.92600
C         -2.44000       12.17200        4.39600
H         -2.25600       12.80000        3.70700
B         -5.05700        6.13000        2.63000
F         -4.09800        5.17500        2.53800
F         -4.48200        7.29500        2.83300
F         -5.93900        5.86100        3.57400
F         -5.68900        6.12300        1.48600
C          0.66900        6.58900        2.38900
O          1.39400        5.73000        2.35300
F         -4.74000        7.27700        2.03500
F         -5.33300        6.31200        3.95200
F         -6.19600        5.79300        2.09000
