164
C:\Users\Javier\OneDrive - Universitat de Barcelona\Tesi\4 - Contribucions\Treballs\3-PhD\chapter_1\cif\pc2p\XAZMUJ.pc2p.pdb
F          9.11200        9.76300       12.79000
F          9.72400        7.79900       12.45700
F         10.76800        9.38200       11.53200
F          6.24900        3.37100       11.67600
F          7.37800        4.58200       12.93600
F          5.88100        3.29200       13.74400
C          6.38000        8.50600        9.85900
C          6.90000        8.64100        8.55900
C          8.26700        8.85300        8.33200
C          9.15500        8.94100        9.39400
C          8.64900        8.86200       10.67500
C          7.29200        8.64700       10.89400
C          8.70800        8.92800        6.92300
C          9.60800        8.95400       11.83400
C          4.52200        7.22300       11.39600
C          5.40600        6.18800       11.64500
C          5.14800        5.21200       12.57100
C          3.97600        5.23400       13.31000
C          3.07900        6.23800       13.08900
C          3.33500        7.23200       12.14500
C          6.13600        4.11000       12.76400
C          1.84300        6.32500       13.86400
B          4.78700        8.29100       10.15100
H          6.33500        8.54900        7.82200
H         10.06900        9.06000        9.27000
H          6.98700        8.58900       11.79300
H          6.19800        6.15200       11.17600
H          3.78700        4.57600       13.92500
H          2.71200        7.91300       11.99600
F          1.54500        5.23000       14.55000
F          1.82800        7.28300       14.77400
F          0.75400        6.55600       13.14400
F          7.81000        9.43400        6.11100
F          9.01000        7.77200        6.40300
F          9.78600        9.67100        6.73600
F          1.97200        6.00500       15.14100
F          1.29300        7.52500       13.89100
F          0.86800        5.53900       13.43600
F          8.30400       10.00700        6.29600
F          8.28200        7.93500        6.18200
F         10.00600        8.92300        6.77300
C          9.51800       16.90300       11.93400
C          8.81400       17.64000       11.04400
C          5.97400       15.10400       11.90300
C          5.99100       16.18200       12.98500
C          4.63700       16.87400       13.11100
C          4.20500       17.46500       11.75500
C          4.09800       16.36100       10.70700
C          5.41200       15.64000       10.56700
C          8.34000       13.99800       13.27300
C          9.80200       13.51000       13.18600
C         10.40400       13.34000       14.60300
C          9.55600       12.37200       15.41900
C          8.11700       12.82700       15.48600
C          7.51500       13.00400       14.09600
C          7.33800       12.70100       10.91600
Rh         9.00000       15.58800       10.15100
P          7.65900       14.38100       11.60000
H          5.36400       14.38300       12.21400
H          6.63000       16.87200       12.73100
H          6.26100       15.76300       13.83400
H          4.66500       17.56400       13.80500
H          3.99000       16.15700       13.34500
H          4.89900       18.09900       11.47300
H          3.32700       17.91100       11.85400
H          3.81700       16.71700        9.85900
H          3.44900       15.69400       11.00800
H          6.03000       16.27600       10.19600
H          5.26300       14.88000        9.98700
H          8.35100       14.85400       13.76300
H         10.32800       14.16600       12.70500
H          9.80400       12.65000       12.74000
H         10.41600       14.22000       15.03200
H         11.30800       13.02800       14.53800
H          9.92200       12.37900       16.33700
H          9.61200       11.47400       15.04600
H          8.07800       13.68200       15.92300
H          7.61400       12.15700       15.97000
H          6.57900       13.29500       14.13400
H          7.57700       12.13500       13.62500
H          8.04900       12.10600       11.26200
H          6.45100       12.37900       11.25300
H         10.44000       17.06200       12.04500
H          9.26200       18.32300       10.55300
H          9.09200       16.68300       12.77200
H          7.92400       17.93500       11.29000
F          3.89900       12.77300        7.51200
F          1.89200       12.32100        7.84500
F          2.74100       14.01600        8.77000
F         -0.20600        7.09800        8.62600
F          0.27900        8.68100        7.36600
F         -0.08900        6.73900        6.55800
C          4.17700        9.77800       10.44300
C          4.03300       10.29600       11.74300
C          3.53400       11.58600       11.97000
C          3.16500       12.39900       10.90800
C          3.35000       11.92200        9.62700
C          3.84300       10.63900        9.40800
C          3.37800       12.00500       13.37900
C          2.95100       12.79800        8.46800
C          3.99400        7.52800        8.90600
C          2.65600        7.77600        8.65700
C          1.94000        7.06400        7.73100
C          2.54500        6.06100        6.99200
C          3.86200        5.78500        7.21300
C          4.59600        6.50400        8.15700
C          0.49100        7.36900        7.53800
C          4.55600        4.75800        6.43800
H          4.23600        9.76100       12.48000
H          2.81100       13.25000       11.03200
H          3.94500       10.34500        8.50900
H          2.22900        8.44400        9.12600
H          2.06900        5.56800        6.37700
H          5.49700        6.30500        8.30600
F          3.75600        3.95300        5.75200
F          5.39300        5.22500        5.52800
F          5.30000        3.93100        7.15800
F          4.26500       11.48100       14.19100
F          2.22500       11.68900       13.89900
F          3.48200       13.31000       13.56600
C         10.09400       12.72600        8.39900
C         11.01800       13.27900        7.31700
C         12.29500       12.45300        7.19100
C         13.02300       12.37400        8.54700
C         12.12000       11.72900        9.59500
C         10.83900       12.50600        9.73500
C          7.95200       14.22200        7.02900
C          6.79900       15.24300        7.11600
C          6.35000       15.68000        5.69900
C          5.93700       14.46200        4.88300
C          7.05000       13.44300        4.81600
C          7.50400       13.01000        6.20600
C          7.33000       12.70600        9.38600
P          8.62500       13.82300        8.70200
H          9.77400       11.83700        8.08800
H         11.29600       14.17700        7.57100
H         10.52100       13.30400        6.46800
H         12.87800       12.82200        6.49700
H         11.99700       11.53400        6.95700
H         13.22400       13.29300        8.82900
H         13.84800       11.83700        8.44800
H         12.56900       11.66400       10.44300
H         11.86700       10.83300        9.29400
H         11.08000       13.36000       10.10600
H         10.25500       11.99800       10.31500
H          8.68800       14.65900        6.53900
H          7.10400       16.02700        7.59700
H          6.05300       14.81600        7.56200
H          7.10700       16.13000        5.27000
H          5.62900       16.30700        5.76400
H          5.75900       14.78200        3.96500
H          5.13100       14.06100        5.25600
H          7.81000       13.83700        4.37900
H          6.72100       12.67200        4.33200
H          8.22400       12.34500        6.16800
H          6.72000       12.63000        6.67700
H          6.45900       13.02400        9.04000
H          7.49500       11.77600        9.04900
C          9.87900       16.69500        8.36800
C         10.87000       16.45300        9.25800
H          9.55600       17.57300        8.25700
H         11.23700       17.18300        9.74900
H          9.90200       16.21500        7.53000
H         11.57100       15.83000        9.01200
