188
C:\Users\Javier\OneDrive - Universitat de Barcelona\Tesi\4 - Contribucions\Treballs\3-PhD\chapter_1\cif\pc2p\XAZNEU.pc2p.pdb
C          3.24400       -2.68700        8.09700
C          1.97500       -1.85000        7.79300
C          1.17300       -1.62600        9.10400
C          2.03400       -0.94600       10.11100
C          3.34100       -1.65800       10.39700
C          4.10200       -1.98600        9.09200
C          5.53800       -4.23000        7.11700
C          6.45100       -4.60800        5.95300
C          7.58900       -5.52400        6.47200
C          7.06700       -6.69900        7.15300
C          6.17100       -6.33900        8.28500
C          5.01400       -5.45400        7.82000
C          4.89900       -1.63800        5.87400
C          5.06000       -1.71600        4.33600
C          4.30500       -3.39500        2.02800
C          4.99400       -2.43700        1.10200
C          5.39400       -3.10700       -0.19300
C          6.24500       -4.34200        0.02600
C          5.54500       -5.31900        0.97300
C          5.20900       -4.60900        2.31600
C          2.47600       -1.36000        2.99500
C          1.31100       -1.95400        2.38200
C          0.28200       -0.90700        1.84900
C         -0.18700       -0.03300        2.95200
C          0.96700        0.60400        3.57700
C          1.97900       -0.45400        4.12800
Rh         2.77800       -4.15100        5.01800
P          3.64400       -2.65900        3.59700
P          4.10400       -3.17600        6.53700
C          1.23700       -5.71800        5.72900
C          0.96600       -5.17100        4.51100
C          1.55600       -5.28100        3.42700
H          2.93800       -3.51700        8.52800
H          2.23200       -0.99800        7.40300
H          1.41700       -2.33300        7.16700
H          0.90600       -2.48400        9.46700
H          0.39000       -1.09800        8.90500
H          1.53300       -0.89800       10.93900
H          2.24000       -0.04800        9.78900
H          3.89700       -1.11900       10.98500
H          3.13700       -2.50600       10.82800
H          4.87400       -2.53100        9.30000
H          4.39100       -1.14600        8.70000
H          6.07600       -3.74500        7.77700
H          6.79700       -3.81600        5.50800
H          5.91400       -5.12600        5.32900
H          8.11400       -5.02500        7.11500
H          8.15200       -5.78100        5.72900
H          7.79700       -7.24700        7.47100
H          6.53100       -7.19000        6.51500
H          5.84800       -7.12600        8.74400
H          6.67900       -5.78800        8.90100
H          4.39400       -5.23000        8.53200
H          4.56200       -5.96900        7.13300
H          5.76800       -1.50800        6.28300
H          4.32500       -0.87600        6.08200
H          5.88900       -2.18600        4.15000
H          5.08600       -0.82100        3.96500
H          3.53500       -3.73600        1.52600
H          5.79700       -2.13300        1.54900
H          4.42500       -1.67000        0.92000
H          5.88400       -2.47600       -0.74700
H          4.58000       -3.38000       -0.64000
H          7.08600       -4.06800        0.42900
H          6.41700       -4.78200       -0.82200
H          6.11700       -6.07900        1.13600
H          4.72200       -5.61400        0.56200
H          6.02800       -4.28600        2.71700
H          4.76900       -5.23900        2.91000
H          2.90800       -0.79500        2.31600
H          0.86100       -2.46100        3.07100
H          1.59300       -2.54100        1.66900
H         -0.47800       -1.35000        1.44800
H          0.74300       -0.36900        1.18800
H         -0.66700       -0.56400        3.60300
H         -0.76600        0.64400        2.58400
H          0.64400        1.16200        4.30100
H          1.41500        1.15200        2.92000
H          2.72700        0.00100        4.54500
H          1.52800       -1.01300        4.78300
H          0.16500       -4.62400        4.37600
H          2.36100       -5.77100        3.53600
H          1.29700       -4.97900        2.56400
H          0.55200       -5.41600        6.31900
H          1.29000       -6.66100        5.76100
H          2.06600       -5.33700        5.99100
C          1.63100       -5.40300        6.48200
C          1.96200       -6.08000        5.49800
C          1.64900       -5.96300        4.17900
H          2.55200       -6.83400        5.69700
H          2.00200       -5.51900        7.34800
H          1.04000       -4.67900        6.31100
H          1.98100       -6.66200        3.63100
H          0.69800       -6.01400        4.21500
H          1.90400       -5.12300        3.81600
C          7.31200        2.92700        5.18400
C          6.85000        2.55700        6.43200
C          5.48500        2.44900        6.73200
C          4.54500        2.73000        5.73300
C          4.97000        3.10700        4.50900
C          6.34000        3.19800        4.19900
C          5.04400        2.03200        8.15600
C          4.02000        3.43200        3.42100
C          9.35600        3.92400        3.64500
C          8.75400        5.14300        3.46400
C          9.19900        6.03900        2.51500
C         10.27700        5.75200        1.70200
C         10.91200        4.53500        1.89500
C         10.44900        3.64200        2.82500
C          8.53100        7.40600        2.37200
C         12.12800        4.22100        1.03700
C          9.16100        1.30700        4.44800
C          8.92800        0.84400        3.14200
C          9.04000       -0.50000        2.80300
C          9.33400       -1.43700        3.76800
C          9.52200       -1.02200        5.05300
C          9.45600        0.34100        5.39900
C          8.85200       -0.87300        1.30700
C          9.86100       -1.94200        6.09800
C          9.83300        3.38000        6.11200
C         11.13500        2.89900        6.35800
C         11.94200        3.39500        7.35200
C         11.50400        4.41000        8.17400
C         10.22400        4.91300        7.96300
C          9.43500        4.43000        6.95200
C         13.33200        2.88400        7.50700
C          9.76100        6.07400        8.86700
B          8.91300        2.88900        4.83900
H          7.46000        2.37100        7.11100
H          3.62900        2.64900        5.90800
H          6.61300        3.43900        3.34700
H          8.02400        5.37000        3.99700
H         10.55100        6.34200        1.03100
H         10.88800        2.82600        2.91600
H          8.71200        1.45700        2.47500
H          9.41200       -2.33500        3.53800
H          9.61200        0.59400        6.28300
H         11.45400        2.20700        5.82800
H         12.02700        4.71700        8.87300
H          8.58900        4.79500        6.83100
F          9.88100        5.75200       10.14200
F         10.49000        7.16300        8.64500
F          8.49200        6.37300        8.63500
F         14.23800        3.67700        6.94400
F         13.69600        2.75900        8.78000
F         13.50600        1.68600        6.96000
F          8.87300       -2.20800        7.02000
F         10.91100       -1.58600        6.90500
F         10.22400       -3.20400        5.70300
F          8.68600       -2.20100        1.19200
F          9.93200       -0.50000        0.61000
F          7.77100       -0.24900        0.82000
F         12.40700        2.91900        1.00500
F         13.22600        4.82800        1.47000
F         11.97000        4.59700       -0.22200
F          8.80200        7.97300        1.22000
F          8.91600        8.24600        3.29900
F          7.22200        7.33200        2.45300
F          4.06400        2.56000        2.40600
F          4.24100        4.63400        2.87200
F          2.74600        3.45100        3.82400
F          5.44500        2.96500        9.01200
F          3.72200        1.92700        8.17200
F          5.60200        0.87100        8.44600
F         10.33100        6.00000       10.05500
F         10.07800        7.24100        8.33100
F          8.44300        6.04200        9.03800
F         14.08700        3.11800        6.44400
F         13.97000        3.43200        8.53600
F         13.37900        1.57100        7.70500
F          9.23800       -1.74400        7.30800
F         11.18500       -1.99000        6.46200
F          9.58500       -3.26400        5.85600
F          9.12500       -2.17400        1.13000
F          9.68200       -0.13700        0.55000
F          7.58900       -0.63400        0.94200
F         12.87400        3.24100        1.54700
F         12.93400        5.26900        0.89400
F         11.79900        3.83300       -0.18900
F          8.01100        7.58300        1.17800
F          9.37700        8.39600        2.56200
F          7.55300        7.57800        3.23600
F          3.35600        2.36400        2.96600
F          4.61400        3.96500        2.34800
F          3.08000        4.31500        3.79000
F          4.96100        3.12000        8.90500
F          3.85700        1.43600        8.07300
F          5.94300        1.20000        8.64900
