65
C:\Users\Javier\OneDrive - Universitat de Barcelona\Tesi\4 - Contribucions\Treballs\3-PhD\chapter_1\cif\pc2p\XEDBEP01.pc2p.pdb
C          4.37600        2.59400       12.67800
H          4.42000        2.03300       13.44300
C          4.37600        3.97700       12.81900
H          4.44100        4.35600       13.68800
C          4.28500        4.80200       11.73000
H          4.28900        5.74500       11.84100
C          4.18700        4.25000       10.46400
H          4.11500        4.81700        9.70600
C          4.19200        2.87500       10.29600
H          4.11800        2.50300        9.42500
C          4.30800        2.04000       11.40000
C          6.22100        0.46800        9.17600
H          6.71800        0.99400        9.79200
C          6.72100        0.22400        7.90700
H          7.56100        0.58900        7.65100
C          6.00400       -0.54500        7.01500
H          6.34700       -0.69000        6.14000
C          4.79900       -1.10200        7.37500
H          4.32700       -1.65500        6.76400
C          4.27700       -0.85100        8.64000
H          3.43700       -1.21600        8.88700
C          4.98600       -0.06400        9.54300
C          5.60800       -0.37800       12.35300
H          6.50500       -0.07800       12.06200
H          5.44100       -0.02700       13.26300
C          5.54300       -1.90600       12.36000
H          6.00300       -2.24900       13.16600
H          6.01700       -2.25700       11.56400
C          3.06100       -4.17500       10.22700
H          2.45600       -3.48500        9.98200
C          3.15300       -5.33300        9.45200
H          2.62400       -5.42400        8.66800
C          4.01500       -6.34500        9.82500
H          4.06000       -7.14000        9.30700
C          4.81200       -6.21200       10.94700
H          5.40600       -6.90900       11.19500
C          4.73900       -5.05500       11.70900
H          5.29300       -4.95700       12.47400
C          3.85200       -4.03300       11.35300
C          2.67500       -4.16400       14.30600
H          2.39600       -4.72400       13.59100
C          2.33100       -4.48400       15.61100
H          1.83200       -5.27200       15.79100
C          2.71600       -3.65600       16.65000
H          2.45600       -3.86200       17.54100
C          3.47400       -2.53500       16.39800
H          3.75100       -1.97900       17.11800
C          3.83500       -2.21400       15.09600
H          4.35900       -1.44100       14.92600
C          3.43100       -3.02200       14.04300
P          4.33500        0.24300       11.20100
P          3.80400       -2.51400       12.34700
Cl         1.15800        0.85400       10.71600
Cl         0.58700       -2.23500       12.12500
Pd         2.45800       -0.90000       11.58900
C          0.78700        0.32200       14.81100
H          1.48400       -0.12100       15.33800
H          0.87200        0.06000       13.87100
H         -0.09500        0.05600       15.14700
C         -0.39700        2.50600       13.91400
H         -1.21000        2.08100       14.25700
H         -0.22300        2.18900       13.00200
H         -0.51700        3.47900       13.90300
S          0.97000        2.09200       14.95400
O          0.55300        2.41700       16.35600
