90
C:\Users\Javier\OneDrive - Universitat de Barcelona\Tesi\4 - Contribucions\Treballs\3-PhD\chapter_1\cif\pc2p\XEJQUB.pc2p.pdb
Ru         3.84500        5.74900       13.61200
P          5.60900        5.02200       12.39500
C          7.18400        4.61200       13.24600
C          8.42600        4.82900       12.64200
H          8.46300        5.20200       11.76900
C          9.60700        4.50800       13.29900
H         10.44500        4.66800       12.88200
C          9.55200        3.95400       14.56400
H         10.35700        3.72700       15.01400
C          8.34300        3.73100       15.16900
H          8.31300        3.34700       16.03700
C          7.16000        4.06400       14.51800
H          6.32800        3.91400       14.95000
C          5.39600        3.60300       11.25800
C          4.11900        3.30800       10.79300
H          3.37700        3.81600       11.09700
C          3.92300        2.27600        9.88600
H          3.04900        2.09800        9.55600
C          4.98000        1.51100        9.46000
H          4.84200        0.80800        8.83400
C          6.25100        1.77000        9.94600
H          6.98300        1.23100        9.67000
C          6.45700        2.80700       10.82800
H          7.33400        2.98300       11.14700
C          6.11400        6.41900       11.32700
H          6.95500        6.20100       10.85000
H          5.41200        6.60900       10.65500
C          6.32000        7.63300       12.23700
H          6.32900        8.46300       11.69600
H          7.18800        7.55900       12.70600
P          4.94100        7.70300       13.47100
C          5.71300        8.19000       15.05000
C          6.94000        7.67900       15.45800
H          7.43800        7.11900       14.87500
C          7.44000        7.98700       16.71600
H          8.28200        7.64000       16.98800
C          6.72000        8.79900       17.57800
H          7.07000        9.01300       18.43400
C          5.50000        9.29000       17.18800
H          5.00000        9.83800       17.78100
C          4.99400        8.99100       15.93300
H          4.14800        9.33500       15.67200
C          4.09500        9.25800       13.03000
C          2.73000        9.29900       12.75000
H          2.21100        8.50400       12.80600
C          2.12300       10.49800       12.39200
H          1.19400       10.51600       12.19200
C          2.86500       11.66000       12.32400
H          2.44600       12.47500       12.07400
C          4.22000       11.63800       12.62400
H          4.73000       12.43900       12.58600
C          4.82800       10.44600       12.97600
H          5.75400       10.43400       13.18300
C          3.00000        6.17200       11.83800
C          2.48400        6.41800       10.77400
C          1.92200        6.68400        9.48500
C          2.06600        5.77500        8.42500
H          2.51700        4.95200        8.57300
C          1.56400        6.05600        7.17300
H          1.68600        5.43000        6.47000
C          0.88300        7.24000        6.92400
C          0.73400        8.15300        7.97000
H          0.27200        8.96900        7.81800
C          1.24900        7.88400        9.22400
H          1.14600        8.52300        9.91900
C          0.37200        7.52400        5.61400
C         -0.01900        7.75900        4.50100
Si        -0.40100        8.13700        2.73800
C          0.74900        7.14800        1.65200
H          1.67200        7.44100        1.80200
H          0.51100        7.28700        0.71100
H          0.67000        6.19700        1.87300
C         -2.12500        7.60900        2.33900
H         -2.24200        6.66600        2.58000
H         -2.28800        7.72300        1.37900
H         -2.76100        8.15800        2.84500
C         -0.18800        9.97100        2.48500
H         -0.77700       10.45600        3.10000
H         -0.41900       10.20200        1.56200
H          0.74400       10.21800        2.66100
C          2.35800        4.25400       14.37500
H          1.92600        3.62900       13.80500
C          3.57200        4.05900       15.06400
H          4.10200        3.27000       15.03900
C          3.86900        5.21900       15.79200
H          4.62900        5.35300       16.34800
C          2.83300        6.15300       15.55300
H          2.78000        7.03000       15.91400
C          1.90300        5.56100       14.69200
H          1.10400        5.96500       14.37500
