97
C:\Users\Javier\OneDrive - Universitat de Barcelona\Tesi\4 - Contribucions\Treballs\3-PhD\chapter_1\cif\pc2p\XEMXOC.pc2p.pdb
Rh         3.76100        1.67700        0.00400
P          1.51300        1.64000        0.52700
P          3.10300        2.88800       -1.84900
C          4.74300        1.41300        1.94800
H          4.35900        1.69600        2.78200
C          4.55100        0.16500        1.42100
H          3.99400       -0.50500        1.82300
C          5.77500       -0.17600        0.58800
H          5.90100       -1.09800        0.35500
C          5.70700        0.81700       -0.55500
H          5.93700        0.59600       -1.46100
C          5.93700        2.05200       -0.02100
H          6.33000        2.77800       -0.51200
C          6.14200        1.85200        1.45200
H          6.56000        2.57600        1.92400
C          6.89000        0.49200        1.47500
H          7.75200        0.51000        1.05200
H          6.95000        0.11500        2.35600
C          0.54600        2.33100       -0.88600
H         -0.26000        2.73000       -0.55200
H          0.29600        1.61100       -1.46900
C          1.35200        3.39400       -1.68000
H          0.96800        3.47500       -2.55600
H          1.29400        4.24700       -1.24700
C          0.89800        2.58100        2.01300
H         -0.05300        2.68200        1.92400
C          1.48900        3.99600        2.04100
H          1.29900        4.44700        1.21500
H          2.44200        3.91200        2.12100
C          0.99000        4.80500        3.23800
H          0.04300        4.92900        3.14300
H          1.40800        5.66900        3.24400
C          1.24500        4.07600        4.54900
H          0.90800        4.58300        5.29100
H          2.19400        3.97200        4.66100
C          0.63300        2.66400        4.52500
H         -0.31400        2.77000        4.41500
H          0.79100        2.19500        5.34700
C          1.14300        1.85800        3.32000
H          2.09200        1.75200        3.43200
H          0.74400        0.98600        3.29200
C          0.84700       -0.07500        0.74500
H          1.20100       -0.40700        1.57400
C         -0.64400       -0.18400        0.84400
H         -1.03700        0.08700        0.01200
H         -0.97700        0.39000        1.53700
C         -1.05300       -1.65600        1.13200
H         -2.00700       -1.73600        1.20500
H         -0.66100       -1.92600        1.96600
C         -0.53100       -2.56500        0.04400
H         -0.96200       -2.31700       -0.77700
H         -0.76300       -3.47700        0.23700
C          0.97500       -2.44300       -0.10800
H          1.24800       -2.98300       -0.85300
H          1.41200       -2.78000        0.67700
C          1.38400       -0.99400       -0.37300
H          2.34200       -0.94300       -0.39300
H          1.05100       -0.69500       -1.22200
C          4.06000        4.47000       -2.03900
H          4.95400        4.23000       -2.29000
C          4.15400        5.21700       -0.71700
H          4.48100        4.62100       -0.04000
H          3.27600        5.50700       -0.45800
C          5.05900        6.40300       -0.83200
H          5.95200        6.09900       -1.01000
H          5.06700        6.86800        0.00700
C          4.62300        7.36200       -1.93800
H          5.27600        8.06000       -2.03000
H          3.78300        7.76600       -1.70800
C          4.46600        6.60900       -3.25100
H          5.33200        6.29600       -3.52700
H          4.13900        7.20800       -3.92400
C          3.52700        5.38900       -3.13700
H          2.64400        5.68900       -2.90800
H          3.48300        4.91300       -3.97000
C          3.21600        2.04600       -3.49800
H          2.58500        2.47400       -4.08100
C          4.56800        2.14500       -4.14400
H          5.21900        1.74000       -3.56600
H          4.80300        3.07000       -4.24800
C          4.61100        1.44900       -5.49300
H          5.50600        1.48800       -5.84000
H          4.03700        1.91800       -6.10300
C          4.16900       -0.00600       -5.40100
H          4.82400       -0.50800       -4.91000
H          4.10800       -0.37800       -6.28400
C          2.81500       -0.11800       -4.72200
H          2.60400       -1.04600       -4.59100
H          2.13900        0.26200       -5.28600
C          2.77900        0.58200       -3.37300
H          1.90000        0.52700       -2.99500
H          3.38500        0.13900       -2.77500
B         -1.43900        1.51300       -3.80800
F         -1.77200        0.55000       -2.91800
F         -1.71700        2.74100       -3.22100
F         -2.21800        1.34600       -4.94300
F         -0.15600        1.44900       -4.11800
