114
C:\Users\Javier\OneDrive - Universitat de Barcelona\Tesi\4 - Contribucions\Treballs\3-PhD\chapter_1\cif\pc2p\XERXAT.pc2p.pdb
Pd         7.94700       -3.43700      -11.72600
P          9.36500       -3.81500      -13.47500
P          6.25500       -4.34500      -13.00400
C          8.34800       -4.44700      -14.88800
H          8.26000       -3.73100      -15.53800
H          8.83900       -5.16500      -15.31500
C          7.05900       -4.92000      -14.58400
H          7.09800       -5.88900      -14.55900
H          6.47400       -4.67600      -15.31800
C         10.70700       -5.06700      -13.27600
H         11.17600       -5.15100      -14.13300
C         10.14800       -6.42900      -12.90200
H          9.65500       -6.35700      -12.06900
H          9.53200       -6.72500      -13.59100
C         11.26100       -7.45100      -12.74500
H         11.70400       -7.58500      -13.59700
H         10.88600       -8.30000      -12.46200
C         12.27600       -6.96100      -11.70500
H         11.84600       -6.91400      -10.83700
H         13.00200       -7.60300      -11.64300
C         12.83600       -5.60800      -12.05600
H         13.34600       -5.67200      -12.87800
H         13.43400       -5.31100      -11.35100
C         11.70900       -4.59300      -12.23100
H         11.25600       -4.46500      -11.38300
H         12.08300       -3.74100      -12.50300
C         10.23900       -2.33900      -14.12800
H         10.83600       -2.02900      -13.41400
C         11.11900       -2.57600      -15.35800
H         11.79100       -3.24400      -15.15000
H         10.57300       -2.91600      -16.08500
C         11.80000       -1.29500      -15.79400
H         12.43400       -1.02100      -15.11400
H         12.29200       -1.45500      -16.61400
C         10.80900       -0.18900      -16.01900
H         11.28300        0.62500      -16.24600
H         10.23600       -0.41900      -16.76700
C          9.96200        0.05200      -14.80300
H          9.30900        0.74500      -14.99600
H         10.52300        0.36500      -14.07600
C          9.24300       -1.21900      -14.37600
H          8.73800       -1.05000      -13.56500
H          8.61900       -1.48800      -15.06900
C          4.82200       -3.29200      -13.48300
H          4.31600       -3.76200      -14.17800
C          5.28700       -1.97500      -14.04900
H          5.79500       -2.13200      -14.86000
H          5.87200       -1.53700      -13.41000
C          4.09900       -1.06100      -14.36000
H          4.43500       -0.20400      -14.66200
H          3.58800       -1.45200      -15.08600
C          3.19800       -0.84100      -13.21400
H          2.43700       -0.30900      -13.49500
H          3.66800       -0.35200      -12.52000
C          2.72800       -2.14200      -12.67600
H          2.17300       -2.58300      -13.33800
H          2.18800       -1.99000      -11.88500
C          3.90000       -3.04000      -12.32300
H          4.40300       -2.63200      -11.60200
H          3.55900       -3.88900      -12.00100
C          5.46000       -5.90600      -12.37800
H          4.86500       -5.63400      -11.64900
C          4.56700       -6.65200      -13.40600
H          3.87700       -6.05400      -13.73100
H          5.10600       -6.93000      -14.16300
C          3.92000       -7.87900      -12.76100
H          3.30400       -7.59100      -12.06900
H          3.41100       -8.36400      -13.43100
C          4.93000       -8.78200      -12.17000
H          5.49500       -9.14100      -12.87100
H          4.48500       -9.52500      -11.73100
C          5.79000       -8.03200      -11.15700
H          5.23000       -7.73900      -10.42000
H          6.45900       -8.63600      -10.80100
C          6.47300       -6.83400      -11.76600
H          6.97400       -6.36400      -11.08100
H          7.09800       -7.12800      -12.44800
C          7.07500       -3.81900       -9.21400
C          7.66100       -2.63000       -9.74400
C          9.02400       -2.53300      -10.08800
C          9.74200       -1.28500      -10.34100
C          9.08400       -0.08900      -10.61500
H          8.15600       -0.07500      -10.65100
C          9.78300        1.07200      -10.83400
H          9.32400        1.86200      -11.01200
C         11.14800        1.07800      -10.79200
H         11.61800        1.86400      -10.95100
C         11.82400       -0.08600      -10.51400
H         12.75200       -0.09100      -10.46600
C         11.11800       -1.23200      -10.31000
H         11.58600       -2.01800      -10.14000
C          5.60800       -3.79000       -9.03400
H          5.16700       -2.98800       -9.19600
C          4.88200       -4.82800       -8.65800
H          5.34600       -5.62200       -8.52900
C          3.43800       -4.88400       -8.41900
C          2.61700       -3.78600       -8.51900
H          2.98200       -2.97800       -8.80100
C          1.28800       -3.83800       -8.22000
H          0.76600       -3.07100       -8.28200
C          0.73500       -5.00600       -7.83500
H         -0.17200       -5.05000       -7.63500
C          1.50000       -6.10500       -7.74000
H          1.11600       -6.90800       -7.47100
C          2.85400       -6.06100       -8.03600
H          3.36800       -6.83400       -7.97300
O          7.72500       -4.81200       -8.87000
C          9.39300       -7.28100       -8.78400
H          8.54700       -6.81100       -8.84800
H         10.06100       -6.72900       -9.22200
Cl         9.25800       -8.69400       -9.63500
Cl         9.80500       -7.39800       -7.13800
H          9.48600       -3.17700       -9.86000
H          7.10700       -1.87000       -9.76600
