71
C:\Users\Javier\OneDrive - Universitat de Barcelona\Tesi\4 - Contribucions\Treballs\3-PhD\chapter_1\cif\pc2p\XEYBUZ.pc2p.pdb
Pd         4.45800        4.52700        7.04300
Cl         2.17200        4.51100        7.69400
C          3.77500        4.97600        5.07000
H          4.52400        5.00000        4.47100
H          3.33700        5.83200        5.07000
H          3.15700        4.30200        4.78400
P          5.30700        4.03500        9.16500
P          6.56500        4.37700        6.32500
C          7.14100        4.04700        8.98700
H          7.47300        4.95400        9.07300
H          7.54200        3.51000        9.68800
C          7.52000        3.48500        7.62600
H          7.31900        2.53800        7.59100
H          8.47100        3.60100        7.47300
C          4.95300        2.32200        9.69100
C          4.54800        1.38900        8.73400
H          4.41200        1.66200        7.85400
C          4.34800        0.06700        9.07700
H          4.09700       -0.54900        8.42900
C          4.51900       -0.33700       10.38600
H          4.38600       -1.22800       10.61800
C          4.88600        0.57400       11.34900
H          4.98600        0.29900       12.23000
C          5.10500        1.89100       11.01200
H          5.35600        2.49900       11.67000
C          4.97800        5.05600       10.62900
C          3.74300        5.67300       10.75300
H          3.12100        5.59600       10.06600
C          3.41800        6.40300       11.89100
H          2.57900        6.79500       11.97400
C          4.35100        6.53800       12.89600
H          4.14800        7.04300       13.64800
C          5.58500        5.92800       12.79300
H          6.20300        6.00800       13.48400
C          5.90100        5.19800       11.65900
H          6.73700        4.80000       11.58700
C          6.85600        3.41100        4.79700
C          6.32200        2.13300        4.72900
H          5.83600        1.79600        5.44700
C          6.50800        1.35900        3.60400
H          6.15600        0.49800        3.57100
C          7.20200        1.84400        2.54700
H          7.31400        1.31900        1.78800
C          7.74200        3.11100        2.59100
H          8.22200        3.44000        1.86700
C          7.56500        3.89700        3.73100
H          7.92800        4.75200        3.76600
C          7.44000        5.95300        6.06400
C          6.70900        7.05400        5.65700
H          5.78400        6.99400        5.57800
C          7.35900        8.26200        5.36600
H          6.87500        9.00000        5.07000
C          8.72400        8.34000        5.51900
H          9.16300        9.14200        5.34600
C          9.43900        7.25500        5.92600
H         10.36000        7.32200        6.03100
C          8.80200        6.05200        6.18600
H          9.29900        5.31000        6.44500
O          3.73300        3.36800        0.62100
C          3.83500        2.00800        0.84700
H          3.57000        1.52600        0.04800
H          4.75700        1.77900        1.04400
C          3.02900        1.63200        1.90200
H          3.55400        1.54100        2.71100
H          2.60200        0.78100        1.71300
C          2.00700        2.69300        2.06800
H          1.15100        2.42200        1.70000
H          1.89400        2.93400        3.00000
C          2.59800        3.79000        1.29800
H          1.94900        4.12300        0.66100
H          2.83100        4.51500        1.89700
