154
C:\Users\Javier\OneDrive - Universitat de Barcelona\Tesi\4 - Contribucions\Treballs\3-PhD\chapter_1\cif\pc2p\XIJPOY.pc2p.pdb
C          6.12600        5.76400       13.51300
H          6.92700        5.99700       13.96800
C          6.88600        7.17300       11.65400
H          7.50800        6.61400       11.14400
H          7.37800        7.66300       12.34500
H          6.44800        7.80900       11.05100
C          4.71900        6.03800       11.63400
H          4.55000        6.44200       10.79100
C          3.80000        5.17200       12.18200
H          2.99000        4.98100       11.72400
C          4.06600        4.57800       13.41300
H          3.44200        3.97000       13.79200
C          5.24400        4.87500       14.08900
C          6.12100        2.99300       15.09600
C          6.60800        2.31700       16.34100
C          7.20500        1.06100       16.38100
H          7.31600        0.55300       15.58500
C          7.63600        0.56400       17.59400
H          8.03400       -0.29700       17.64400
C          7.48500        1.33900       18.75400
H          7.77400        1.01300       19.59800
C          6.90000        2.59300       18.64100
C          6.71000        3.54300       19.78900
C          4.46200        7.80900       15.69400
C          5.63200        8.51200       15.37800
H          6.36900        8.50100       15.97700
C          5.71700        9.22900       14.18100
H          6.50300        9.72200       13.97800
C          4.65200        9.22000       13.29100
H          4.71200        9.70500       12.47600
C          3.50500        8.50800       13.58800
H          2.78300        8.49800       12.97200
C          3.40300        7.80900       14.78600
H          2.60900        7.32800       14.98600
C          4.74500        8.23300       18.46800
C          6.04100        8.44100       18.92800
H          6.74500        7.88500       18.61400
C          6.32200        9.46000       19.85000
H          7.21300        9.59800       20.14800
C          5.29800       10.26400       20.32600
H          5.48100       10.94000       20.96800
C          4.00800       10.07800       19.86000
H          3.31000       10.64500       20.17000
C          3.71600        9.06600       18.93900
H          2.82600        8.94200       18.63200
C          2.58900        6.58300       17.52600
H          2.37700        6.59100       18.49300
H          2.06700        7.30100       17.08700
C          2.22200        5.22200       16.91900
H          2.26000        5.27100       15.93100
H          1.30200        4.97100       17.18400
C          3.00000        2.47700       16.54700
C          2.04300        2.51800       15.53600
H          1.59500        3.33400       15.34500
C          1.73700        1.37400       14.80200
H          1.08600        1.41800       14.11200
C          2.37200        0.17600       15.07000
H          2.15400       -0.60300       14.57200
C          3.32500        0.11800       16.06400
H          3.76700       -0.70200       16.24700
C          3.64400        1.25400       16.80200
H          4.30300        1.20100       17.48500
C          2.78800        3.50800       19.19500
C          1.63400        4.06700       19.76000
H          1.13100        4.71000       19.27300
C          1.22200        3.68000       21.03900
H          0.44400        4.06900       21.42200
C          1.94100        2.73400       21.75100
H          1.64100        2.46200       22.61000
C          3.09100        2.18500       21.21900
H          3.58900        1.54500       21.71600
C          3.51800        2.57500       19.95000
H          4.31400        2.20400       19.59100
C          8.50600        6.04300       17.00200
C          9.89500        6.48800       16.87500
H         10.42300        6.13000       17.61900
H          9.92700        7.46800       16.89400
H         10.26600        6.16600       16.02700
N          5.85700        6.31100       12.29600
N          5.60900        4.22800       15.30500
N          6.44800        3.03200       17.45700
N          6.00800        4.65300       19.45000
N          7.43100        5.70800       17.12200
O          6.25600        2.43100       13.98500
O          7.15500        3.24800       20.91500
P          4.39000        6.88000       17.27800
P          3.41300        3.96900       17.52800
Ru         5.51100        4.84900       17.37200
N          4.48100        6.90400       21.88800
C          5.90700        5.57600       20.51400
C          7.01100        6.10300       21.20000
H          7.89100        5.83000       20.97000
C          6.80700        7.02300       22.21400
H          7.55100        7.38400       22.68100
C          5.52900        7.41800       22.55000
H          5.39100        8.05100       23.24600
C          3.09700        7.33000       22.24300
H          2.45400        6.86400       21.66900
H          2.91700        7.11100       23.18100
H          3.01000        8.29800       22.11100
C          4.65000        6.00000       20.89300
H          3.88700        5.65100       20.44600
N          6.15800        7.10900       22.15500
C          5.43800        5.64200       20.45600
C          4.11700        6.02600       20.66400
H          3.40200        5.63900       20.17300
C          3.86800        7.01900       21.62200
H          2.98400        7.33900       21.76100
C          4.91600        7.51500       22.36800
H          4.74000        8.16900       23.04000
C          7.27400        7.68500       22.95100
H          8.12100        7.27800       22.66900
H          7.31600        8.65500       22.80000
H          7.12600        7.50900       23.90100
C          6.45300        6.16100       21.21500
H          7.34500        5.86700       21.09000
C         -0.45800        0.44800       10.13700
C         -0.09300        1.29500       11.25700
H         -0.17400        2.23600       10.99400
H          0.83100        1.10700       11.52100
H         -0.69200        1.11500       12.01200
N         -0.75800       -0.22300        9.25600
C          9.12500        3.87700       13.22600
C          9.51300        3.07400       14.35700
H          9.01000        3.35800       15.14800
H         10.47300        3.18400       14.52300
H          9.32100        2.13100       14.16900
N          8.80700        4.53200       12.33700
C         -0.49700        2.16500       17.88200
C          0.11000        0.89100       18.23400
H          0.67600        1.00700       19.02600
H          0.65700        0.57200       17.48600
H         -0.59200        0.23600       18.42800
N         -0.96700        3.16600       17.62100
C          8.55300       11.97500       22.47200
C          9.82900       12.56500       22.05900
H         10.37300       11.88400       21.61000
H         10.30600       12.89700       22.84800
H          9.66100       13.30800       21.44300
N          7.56300       11.53000       22.77900
F         -0.43400       -1.10400       13.25400
F         -0.30700       -2.43900       14.99400
F         -2.04500       -2.66200       13.60600
F         -2.41800       -1.81200       15.63200
F         -2.54800       -0.48300       13.83300
F         -0.86600       -0.24800       15.27400
P         -1.42800       -1.47200       14.42300
F          9.73200        9.33900       21.16700
F         11.90200        9.44600       20.76500
F         10.55900        9.02400       19.08400
F         11.78200        7.36900       19.85000
F          9.63000        7.38400       20.10200
F         11.08100        7.74600       21.85200
P         10.76000        8.37500       20.44100
