154
C:\Users\Javier\OneDrive - Universitat de Barcelona\Tesi\4 - Contribucions\Treballs\3-PhD\chapter_1\cif\pc2p\XOQYAD.pc2p.pdb
Ru         9.67500        3.61800        1.59300
P          8.07600        5.29900        1.76200
P          9.38800        3.45600        3.89500
N          8.21000        2.34300        1.32100
N          7.43200        1.61700        1.09900
C         10.70200        3.05400       -0.28900
H         10.28300        2.60100       -1.06300
C         11.36600        2.40900        0.79100
H         11.49900        1.43400        0.90300
C         11.88500        3.41100        1.60200
H         12.44000        3.26100        2.40800
C         11.54500        4.66200        1.07800
H         11.83800        5.54100        1.42300
C         10.83600        4.42400       -0.12500
H         10.52400        5.12000       -0.76000
C          7.13700        4.93400        3.28800
H          6.55300        5.69000        3.51100
H          6.57700        4.14200        3.15600
C          8.12400        4.68700        4.42100
H          7.64700        4.35300        5.20900
H          8.56500        5.53000        4.66400
C          6.80300        5.45800        0.43000
H          6.66100        6.43600        0.39000
C          7.34100        5.15500       -0.94700
H          6.62900        5.25200       -1.60000
H          7.68000        4.24600       -0.96900
H          8.05800        5.77300       -1.15700
C          5.48900        4.97300        0.69600
H          4.92900        5.11300       -0.08200
H          5.11600        5.44800        1.45500
H          5.53000        4.02400        0.89700
C          8.72200        7.01500        2.04700
H          9.42500        6.94600        2.73900
C          9.37200        7.60000        0.81600
H          9.69300        8.49500        1.01300
H          8.72300        7.64200        0.09500
H         10.11700        7.03900        0.54600
C          7.65800        7.97900        2.58700
H          8.05200        8.85500        2.71600
H          7.32100        7.64900        3.43400
H          6.92700        8.04200        1.95200
C          8.62200        1.85200        4.42600
H          7.73900        1.82700        3.97900
C          9.36800        0.61200        3.90700
H          8.91500       -0.18900        4.21200
H         10.27800        0.61700        4.24400
H          9.38300        0.62400        2.93600
C          8.31800        1.73500        5.90800
H          7.91300        0.87100        6.08800
H          7.70600        2.44000        6.16900
H          9.14100        1.81600        6.41400
C         10.75400        3.80700        5.08800
H         10.32600        3.89200        5.97600
C         11.42700        5.16200        4.80700
H         12.13200        5.31200        5.45700
H         10.76800        5.86900        4.87400
H         11.80700        5.15500        3.91400
C         11.79700        2.68900        5.23000
H         12.47200        2.95400        5.87300
H         12.21700        2.52900        4.37100
H         11.36200        1.87700        5.53400
B          2.62800        4.74900        9.10100
C          3.47800        3.61500        9.93300
C          4.75000        3.17500        9.55000
H          5.13000        3.51100        8.75800
C          5.47100        2.25900       10.30800
C          4.96600        1.74800       11.48700
H          5.45700        1.12700       11.99500
C          3.71400        2.17600       11.89900
C          2.99400        3.08700       11.14400
H          2.15200        3.36400       11.45300
C          6.81100        1.79200        9.83100
C          3.12000        1.64300       13.16200
C          2.94900        6.12600        9.92800
C          4.15300        6.82100        9.76200
H          4.73800        6.56100        9.07400
C          4.51000        7.87900       10.57500
C          3.68700        8.29700       11.60600
H          3.93100        9.01200       12.16200
C          2.49500        7.62700       11.78800
C          2.13900        6.56100       10.98100
H          1.32900        6.11500       11.14600
C          5.81000        8.61300       10.35200
C          1.59600        8.04100       12.91900
C          1.03400        4.37100        9.07800
C          0.04200        5.34000        8.87300
H          0.29500        6.24300        8.80200
C         -1.30300        5.00600        8.77100
C         -1.72000        3.68700        8.85600
H         -2.63100        3.46100        8.79700
C         -0.75400        2.71100        9.03200
C          0.58800        3.05300        9.13900
H          1.22000        2.36500        9.25900
C         -2.31200        6.09800        8.58300
C         -1.13400        1.26000        9.11100
C          3.05700        4.78600        7.52200
C          3.17000        5.94400        6.75400
H          3.05700        6.77900        7.16900
C          3.44600        5.89600        5.38200
C          3.62200        4.69600        4.73400
H          3.81300        4.66700        3.81400
C          3.50800        3.53200        5.47100
C          3.23200        3.57200        6.82800
H          3.15700        2.76500        7.30200
C          3.61400        7.17600        4.61300
C          3.71600        2.21800        4.76700
F          7.40100        2.65100        9.03100
F          7.79700        2.63000       10.16200
F          7.67700        1.63600       10.82100
F          7.16100        0.66300       10.34800
F          6.76500        0.68400        9.21800
F          6.88400        1.67800        8.56000
F          3.96000        1.03400       13.93100
F          3.63300        2.15200       14.24300
F          2.56100        2.58500       13.89500
F          1.81900        1.90000       13.23700
F          2.14600        0.78200       12.92600
F          3.21700        0.34900       13.27300
F          6.33000        9.04400       11.49100
F          5.75500        9.85300       10.80300
F          5.66700        9.67800        9.61200
F          6.15400        8.69400        9.10800
F          6.73000        7.88600        9.79600
F          6.81800        8.06100       10.98800
F          1.88100        7.46000       13.99100
F          2.23300        8.57300       13.87100
F          1.63600        9.30300       13.17700
F          0.68800        8.92400       12.60400
F          0.33600        7.81300       12.72500
F          0.93300        7.08200       13.41700
F         -3.46200        5.67800        8.14100
F         -2.73400        6.23100        7.37400
F         -1.93400        7.02100        7.77400
F         -1.86300        7.25900        8.94100
F         -2.59100        6.70500        9.70900
F         -3.39100        5.91500        9.30800
F         -2.40300        1.05200        9.17200
F         -1.85000        0.85600        8.11400
F         -0.67700        0.56300        8.08800
F         -0.05600        0.46500        9.12300
F         -0.60900        0.66000       10.18000
F         -1.78200        0.95400       10.20500
F          3.98400        7.00700        3.37500
F          4.73000        7.89900        5.13100
F          2.67200        7.99200        4.69400
F          3.19600        8.16600        5.18500
F          2.51800        7.11000        3.59100
F          4.51300        7.28500        3.92000
F          3.70600        1.18300        5.54800
F          2.62900        1.99500        3.89500
F          4.75000        2.20800        3.99400
F          4.21200        2.29400        3.67600
F          4.93100        1.63000        5.47200
F          2.94300        1.43100        5.02500
