170
C:\Users\Javier\OneDrive - Universitat de Barcelona\Tesi\4 - Contribucions\Treballs\3-PhD\chapter_1\cif\pc2p\XUKVAC.pc2p.pdb
F         10.06900        8.54200        8.21300
F         11.31600       10.03000        7.41200
F         12.17300        8.42500        8.51800
F         15.59800        1.70300       -0.00400
F         16.69000        1.83800        1.78900
F         16.52800        3.50500        0.57600
F         10.58600        3.25000        8.70500
F         11.81600        2.06800        9.96800
F         10.97200        1.20600        8.22400
F         17.10100        2.20900        8.37100
F         16.17400        0.36800        7.94300
F         17.01400        1.50600        6.36800
C         12.49100        6.20700        5.02400
C         12.31000        6.92100        6.21700
C         11.37200        7.92800        6.34700
C         10.52800        8.25300        5.28100
C         10.68800        7.56800        4.10100
C         11.66300        6.56900        3.96300
C         11.22800        8.70300        7.61300
C          9.77600        7.88300        2.95100
C         15.06400        6.07300        4.87800
C         15.50600        6.66400        3.71200
C         16.61100        7.51500        3.67700
C         17.30200        7.83000        4.83700
C         16.85800        7.26600        6.03000
C         15.76900        6.40200        6.05000
C         17.11500        8.05600        2.38700
C         17.51700        7.61300        7.32800
C         13.61500        4.17100        3.58400
C         12.39100        3.60100        3.21800
C         12.27000        2.74200        2.12900
C         13.37100        2.38000        1.38600
C         14.60600        2.89200        1.75600
C         14.72000        3.76400        2.83900
C         10.91500        2.19700        1.79500
C         15.83900        2.48000        1.01800
C         13.76600        4.07500        6.15400
C         12.66300        3.72200        6.94200
C         12.74300        2.71900        7.89700
C         13.91700        2.01200        8.10100
C         15.01200        2.33500        7.33200
C         14.94000        3.33800        6.38400
C         11.53800        2.32200        8.68900
C         16.32400        1.61500        7.52900
B         13.72400        5.13600        4.90900
F          9.32800        9.11300        2.97100
F          8.71900        7.12900        2.91500
F         10.35500        7.73600        1.77300
F         10.44800        1.39000        2.72800
F         10.90500        1.51300        0.68700
F         10.01800        3.13400        1.64800
F         16.39400        7.66700        1.34500
F         18.36300        7.68400        2.12200
F         17.11900        9.38800        2.34900
F         18.73800        8.06500        7.17800
F         17.61700        6.58100        8.15200
F         16.87700        8.53700        7.99700
H         12.84800        6.70100        6.94700
H          9.88300        8.92300        5.36600
H         11.75300        6.13900        3.14600
H         15.04500        6.49300        2.92100
H         18.04500        8.39500        4.82000
H         15.50100        6.02800        6.85800
H         11.63400        3.81100        3.70100
H         13.29800        1.80700        0.66000
H         15.56200        4.07900        3.06800
H         11.85100        4.15500        6.83000
H         13.95800        1.34700        8.74800
H         15.70300        3.54600        5.89200
C         13.77800       10.20300        3.78900
C         14.18000       10.39500        5.24700
C         15.86200       11.73200        7.90800
C         14.92600       10.94900        8.76800
C         16.64800       12.77100        8.65300
C         17.57400       12.44300        4.65100
C         17.74900       12.43600        3.16200
C         18.81700       11.98900        5.34900
C         13.65700       15.53800        5.18000
C         12.79000       15.48200        4.12700
C         13.26500       15.28300        2.86100
C         14.61100       15.26000        2.63700
C         15.48000       15.35400        3.68800
C         15.00100       15.45100        4.96300
O         11.52900       11.53500        3.57300
O         15.09000       12.45200        6.87700
O         16.50400       11.50500        5.00200
P         13.06300       11.77700        3.21500
P         15.03200       11.99100        5.36000
Rh        14.06900       13.52900        4.10800
C         13.69900       10.21100       -0.15800
C         11.38300       11.18500        0.03200
C         12.60200       10.67900        0.76000
O         13.13900       11.79500        1.57900
F         16.81100       15.35600        3.46500
H         14.55900        9.98700        3.24200
H         13.13000        9.49600        3.71600
H         14.76800        9.68500        5.52800
H         13.39300       10.40800        5.79700
H         16.48200       11.11100        7.47300
H         14.46700       10.28400        8.23000
H         15.44700       10.50200        9.45800
H         14.28700       11.54500        9.17900
H         17.20800       13.26900        8.03600
H         17.19600       12.34100        9.31100
H         16.04200       13.37600        9.08800
H         17.32700       13.34000        4.95400
H         16.91800       12.70100        2.73100
H         18.46600       13.04700        2.93000
H         17.98400       11.54000        2.88900
H         18.66300       12.01600        6.30100
H         19.53200       12.59300        5.12500
H         19.02600       11.08800        5.06500
H         13.30300       15.47700        6.10200
H         14.93400       15.02900        1.75000
H         15.64000       15.39000        5.71900
H         14.46800        9.94800        0.36200
H         13.95000       10.93100       -0.74700
H         13.39100        9.46400       -0.67400
H         10.72900       11.48000        0.67300
H         11.62300       11.92600       -0.53500
H         11.01400       10.47100       -0.49100
H         12.34700        9.94300        1.35300
C          9.53000       12.04700        4.78100
C         10.04600       13.15300        2.58300
C         10.60200       12.62800        3.89800
H          8.88800       12.74600        4.98700
H          9.92500       11.68100        5.59300
H          9.09900       11.35600        4.24600
H          9.51700       13.93000        2.75400
H         10.78600       13.39500        2.00700
H          9.51100       12.47200        2.16300
H         11.08100       13.33900        4.36700
H         11.85600       15.57700        4.27700
H         12.65700       15.16500        2.14100
F         10.15700        8.90300        2.26700
F          8.55100        8.14900        3.32400
F          9.67500        6.90400        2.09400
F         10.82300        0.89800        2.00500
F         10.58600        2.38600        0.52400
F          9.95700        2.74800        2.50500
F         16.14300        8.25400        1.49000
F         17.98700        7.25800        1.80100
F         17.72300        9.21500        2.51800
F         18.09800        8.80800        7.31200
F         18.45500        6.76900        7.66700
F         16.68400        7.63900        8.33700
C         13.46600        9.61200        0.54300
C         12.07500       11.47900       -0.41400
C         12.50400       10.73400        0.81900
O         13.17800       11.70000        1.72400
F         12.41000       15.21500        1.82800
F         11.47000       15.50600        4.34800
H         13.63900        9.13600        1.36000
H         14.29400        9.96100        0.19300
H         13.07600        9.01000       -0.09700
H         11.46700       12.18600       -0.17100
H         12.85400       11.85700       -0.83600
H         11.64200       10.87200       -1.01800
H         11.70800       10.37900        1.27300
C         10.66900       12.73800        5.45500
C          9.21600       12.13100        3.49900
C         10.58200       12.58500        3.95000
H          9.63300       13.45500        5.66500
H         11.73700       13.16000        6.04400
H         10.48100       11.48800        5.56500
H          8.52900       12.76400        3.71400
H          9.45700       12.21300        2.57300
H          8.90100       11.24300        3.67500
H         10.93100       13.48400        3.78100
H         16.41600       15.35200        3.52900
