69
C:\Users\Javier\OneDrive - Universitat de Barcelona\Tesi\4 - Contribucions\Treballs\3-PhD\chapter_1\cif\pc2p\XUTJUU.pc2p.pdb
Pd        -6.86800        4.54000        5.05100
P         -7.67400        5.12300        2.93000
P         -5.07900        6.00900        4.67800
C         -7.86800        3.74300        1.64300
C         -9.20300        3.00300        1.81400
H         -9.21700        2.21500        1.23200
H         -9.94100        3.60000        1.57100
H         -9.30400        2.72200        2.74800
C         -7.74800        4.20500        0.17900
H         -7.79500        3.42600       -0.41500
H         -6.89100        4.66100        0.05000
H         -8.48100        4.82000       -0.03100
C         -6.73700        2.73300        1.91700
H         -6.75900        2.46800        2.86100
H         -5.87300        3.14800        1.71300
H         -6.86200        1.94200        1.35200
C         -6.36700        6.17700        2.14400
H         -5.77200        5.59800        1.60600
H         -6.80300        6.81700        1.52700
C         -5.51600        6.96200        3.14900
H         -6.00800        7.77900        3.41300
H         -4.67900        7.24700        2.70200
C         -4.84000        7.40900        5.92500
C         -4.01200        6.94300        7.13300
H         -4.04100        7.62800        7.83400
H         -3.08200        6.79900        6.85600
H         -4.38400        6.10500        7.48000
C         -4.19200        8.67800        5.35200
H         -4.09600        9.34500        6.06200
H         -4.75700        9.04000        4.63800
H         -3.30900        8.45800        4.98900
C         -6.24600        7.78400        6.42300
H         -6.69000        6.98600        6.77800
H         -6.77000        8.14600        5.67900
H         -6.17300        8.45800        7.13000
C         -3.40100        5.22400        4.29500
C         -2.93700        4.32800        5.45200
H         -3.66700        3.73000        5.71600
H         -2.68000        4.88600        6.21500
H         -2.16800        3.79300        5.16300
C         -2.28200        6.21200        3.94500
H         -1.48900        5.71700        3.65500
H         -2.06200        6.74900        4.73400
H         -2.58200        6.80200        3.22100
C         -3.63800        4.30600        3.09500
H         -3.83600        4.84900        2.30300
H         -4.39500        3.71300        3.28100
H         -2.83400        3.77000        2.92900
C         -9.21500        6.21900        2.92500
C         -9.75000        6.58500        1.53600
H        -10.46900        7.24400        1.62600
H        -10.09700        5.78000        1.09800
H         -9.02400        6.96500        0.99700
C        -10.33500        5.56300        3.74900
H        -10.01300        5.38800        4.65700
H        -10.59700        4.71800        3.32700
H        -11.10800        6.16400        3.78700
C         -8.82900        7.51600        3.65400
H         -9.62800        8.06800        3.78200
H         -8.17400        8.00800        3.11800
H         -8.44000        7.29600        4.52700
C         -8.46100        3.24600        5.50200
H         -8.11000        2.35100        5.69300
H         -9.07300        3.20200        4.73800
H         -8.94200        3.58200        6.28700
C         -6.23200        3.98800        6.98700
H         -6.57500        3.34500        7.24400
H         -5.39300        3.78500        7.08400
H         -6.30900        4.67500        7.51300
