48
C:\Users\Javier\OneDrive - Universitat de Barcelona\Tesi\4 - Contribucions\Treballs\3-PhD\chapter_1\cif\pc2p\YAHZOW.pc2p.pdb
Ru        -0.02400        0.10700        4.70400
Cl         2.33100       -0.38100        4.79600
P          0.09200        1.55000        6.42300
P          0.37900        1.93900        3.48700
F          1.35200        2.56000        8.57600
F          2.61100        1.73200        7.03400
F          2.71400        0.33700        9.30200
F          0.54600        0.08500        9.33500
F          1.67700       -0.83400        7.86900
F         -1.84700        0.54900        7.95400
F         -2.43800        2.09500        6.57900
F         -1.14900        3.92300        8.31800
F         -2.90200        2.90000        8.92700
F         -0.99800        2.30900        9.71000
F          2.96000        2.00700        2.90000
F          1.76400        3.29600        1.62100
F          2.88400        1.27900        0.29300
F          0.77800        1.14600        0.35400
F          1.95900       -0.16400        1.55000
F         -2.04600        2.79900        3.53100
F         -1.65600        1.56200        1.73700
F         -0.69000        4.84800        2.31100
F         -0.61000        3.62700        0.50100
F         -2.49500        4.09200        1.37500
C          0.26600        3.31000        5.83600
C          0.89800        3.34700        4.52500
C          1.44700        1.51200        7.72300
C          1.59800        0.24200        8.57800
C         -1.51100        1.74200        7.46500
C         -1.60000        2.73800        8.65300
C          1.81200        2.09100        2.22400
C          1.85000        1.04400        1.09900
C         -1.16300        2.56500        2.53800
C         -1.21300        3.83800        1.66200
C         -1.05400       -1.17300        3.19200
C         -2.00700       -0.50600        3.97200
C         -1.87700       -0.93600        5.27200
C         -0.80800       -1.85100        5.33700
C         -0.32400       -1.99800        4.05100
H          0.79500        3.80900        6.46400
H         -0.60000        3.72200        5.78200
H          0.67400        4.16900        4.08200
H          1.85000        3.32300        4.63700
H         -0.92900       -1.08400        2.24500
H         -2.64300        0.13800        3.65300
H         -2.42500       -0.66000        6.01100
H         -0.47700       -2.28400        6.12700
H          0.40000       -2.57300        3.79100
