62
C:\Users\Javier\OneDrive - Universitat de Barcelona\Tesi\4 - Contribucions\Treballs\3-PhD\chapter_1\cif\pc2p\YAQZIZ.pc2p.pdb
Ru         3.05500        2.27700        0.23900
P          3.64400        3.46200       -1.70700
P          5.32700        2.61100        0.73000
C          2.99500        0.96800        1.61400
O          2.99100        0.15500        2.42800
C          2.22700        3.73300        1.18300
O          1.66600        4.52900        1.78300
C          1.96800        1.19400       -0.85900
O          1.29700        0.53700       -1.54100
C          5.44900        3.76100       -1.73500
C          5.96500        3.96100       -0.32400
C          2.95000        5.12500       -1.93300
C          3.34200        2.68900       -3.32100
C          5.81700        3.13000        2.40000
C          6.47700        1.25100        0.40000
Ru         0.22100        0.08700        7.87400
P         -0.12600        0.41100        5.56700
P         -2.11900       -0.17900        7.86800
C          0.33200       -0.17200        9.75900
O          0.41200       -0.34400       10.88600
C          0.99100        1.81900        7.97800
O          1.50500        2.85100        8.04000
C          1.16000       -1.54700        7.55600
O          1.76800       -2.51200        7.42300
C         -1.92800        0.54000        5.23400
C         -2.69600       -0.41700        6.14100
C          0.54000        1.87900        4.72700
C          0.40800       -0.94500        4.48800
C         -2.87300       -1.58500        8.74700
C         -3.16400        1.20500        8.42300
H          5.90800        2.98700       -2.15000
H          5.64600        4.56400       -2.27900
H          5.66000        4.83500        0.02800
H          6.95400        3.95300       -0.31800
H          3.31000        5.52000       -2.75500
H          3.19400        5.68600       -1.16600
H          1.97400        5.06600       -1.99700
H          3.71500        3.25400       -4.03100
H          2.37600        2.58800       -3.46200
H          3.76900        1.80700       -3.34700
H          6.76100        3.38900        2.39700
H          5.68200        2.38800        3.02600
H          5.27000        3.89500        2.39700
H          7.39200        1.54300        0.59200
H          6.40900        0.98600       -0.54100
H          6.25200        0.48600        0.97200
H         -2.23100        1.46800        5.39800
H         -2.10900        0.31900        4.28800
H         -2.53600       -1.35200        5.85700
H         -3.66600       -0.23400        6.07900
H          0.24200        1.88100        3.79200
H          1.51800        1.85700        4.75800
H          0.21500        2.68700        5.17500
H          0.15500       -0.74400        3.56100
H         -0.02400       -1.77900        4.76900
H          1.38100       -1.04500        4.54400
H         -3.83800       -1.59300        8.58400
H         -2.70400       -1.49800        9.70800
H         -2.47900       -2.42200        8.42100
H         -4.10000        1.01900        8.19800
H         -2.87700        2.03000        7.97800
H         -3.07700        1.31100        9.39500
