75
C:\Users\Javier\OneDrive - Universitat de Barcelona\Tesi\4 - Contribucions\Treballs\3-PhD\chapter_1\cif\pc2p\YAWCAB.pc2p.pdb
C          8.68800        5.24000       19.23600
C          7.02400        3.81900       18.09000
C          4.19100        2.40300       16.81000
C          3.09200        3.20500       17.22200
C          1.85500        4.80300       18.15100
C          0.99400        3.97400       17.48700
C          1.76600        2.98200       16.89900
C          8.33800       -1.33100       14.80600
C          6.99200       -1.14700       14.10600
C          4.34200       -0.03900       14.34200
C          4.32100        1.03300       13.49200
C          3.19300        1.28400       12.70300
C          2.12600        0.43700       12.80000
C          2.12900       -0.57700       13.66600
C          3.22400       -0.83100       14.44100
C          5.42800       -1.64000       16.49800
C          5.21600       -1.27900       17.80200
C          4.87900       -2.23200       18.75100
C          4.76600       -3.55200       18.38400
C          4.97100       -3.91300       17.09600
C          5.29400       -2.98200       16.14500
C         10.03600       -0.25100       16.86100
C         11.39300       -0.23100       16.64600
C         12.25500       -0.70200       17.62900
C         11.76300       -1.20200       18.79300
C         10.42000       -1.23700       19.00800
C          9.55500       -0.75500       18.05700
C          9.72100        1.20700       14.34400
C         10.35500        2.38900       14.70700
C         11.00100        3.14200       13.75500
C         11.00200        2.74800       12.43500
C         10.36400        1.59800       12.06400
C          9.73200        0.81600       13.01500
N          7.35400        4.89500       18.81000
N          5.75300        3.63900       17.83600
N          5.45600        2.53400       17.04500
N          3.10900        4.34100       18.00200
P          5.85000       -0.36000       15.28300
P          8.83800        0.24400       15.59500
S          8.31400        2.75400       17.57700
Cl         7.35600       -0.22500       10.49800
Pd         7.00700        1.32000       16.35000
H          8.96800        4.63800       19.93100
H          8.69500        6.13900       19.57200
H          9.29000        5.17000       18.49100
H          3.96500        1.66800       16.28700
H          1.61300        5.56400       18.62900
H          0.06900        4.05800       17.43700
H          1.44500        2.28300       16.37400
H          9.01000       -1.60300       14.16100
H          8.26600       -2.02600       15.47900
H          6.64200       -2.00600       13.82400
H          7.09900       -0.58800       13.31900
H          5.05900        1.59700       13.43700
H          3.17000        2.01300       12.12700
H          1.38500        0.57100       12.25300
H          1.37600       -1.11700       13.74100
H          3.21200       -1.54400       15.03900
H          5.30000       -0.38700       18.05500
H          4.72900       -1.97900       19.63300
H          4.54900       -4.19500       19.01900
H          4.89100       -4.80600       16.85200
H          5.42600       -3.24600       15.26200
H         11.73300        0.09600       15.84400
H         13.17500       -0.67400       17.48900
H         12.34600       -1.52000       19.44500
H         10.08600       -1.59000       19.80000
H          8.63900       -0.76800       18.21700
H         10.34300        2.66800       15.59300
H         11.43900        3.92400       14.00500
H         11.43900        3.26400       11.79600
H         10.35500        1.34100       11.17100
H          9.31200        0.02700       12.76000
H          6.71600        5.42500       19.03900
H          3.81400        4.69900       18.33900
