86
C:\Users\Javier\OneDrive - Universitat de Barcelona\Tesi\4 - Contribucions\Treballs\3-PhD\chapter_1\cif\pc2p\YEDHIZ.pc2p.pdb
Ru         2.96800        7.91000        2.88700
P          0.73100        7.67600        3.28300
P          3.01100        5.81000        3.73800
N          2.30000        6.88100       -0.00500
C          2.49900        7.19800        1.09500
C          1.30100        5.11500        3.93100
H          1.29700        4.16000        3.66700
H          1.02100        5.17600        4.87800
C          0.32200        5.90100        3.04600
H         -0.61300        5.72200        3.32000
H          0.43000        5.64500        2.09600
C          3.57900        9.91000        2.11400
C          4.67400        8.98200        1.92700
C          5.11300        8.55000        3.20400
C          4.31000        9.21100        4.20700
C          3.39100       10.05300        3.52100
C          2.90600       10.69900        1.04800
H          3.34000       11.57300        0.96400
H          1.96200       10.82500        1.28100
H          2.97000       10.21900        0.19600
C          5.31900        8.65800        0.60900
H          5.93000        9.38100        0.35900
H          4.62700        8.56100       -0.07800
H          5.82100        7.82000        0.68900
C          6.35300        7.75600        3.47700
H          7.13900        8.32900        3.36500
H          6.40400        7.00400        2.85000
H          6.32600        7.41400        4.39500
C          4.57800        9.18700        5.68800
H          5.40100        9.68400        5.88000
H          4.68000        8.25900        5.98600
H          3.82800        9.60400        6.16300
C          2.49900       11.10100        4.13800
H          2.97200       11.95800        4.16600
H          2.25800       10.83000        5.04900
H          1.68600       11.19400        3.59900
C          0.05600        7.98600        4.95900
C          0.86100        8.58500        5.92000
H          1.75000        8.83300        5.69700
C          0.38700        8.82500        7.19800
H          0.94200        9.25500        7.83700
C         -0.89100        8.43900        7.54300
H         -1.21600        8.59500        8.42300
C         -1.70700        7.82400        6.59900
H         -2.58300        7.54400        6.84200
C         -1.24900        7.61200        5.30300
H         -1.81800        7.21600        4.65500
C         -0.42100        8.60600        2.22300
C         -0.94100        8.05300        1.05500
H         -0.72800        7.15800        0.81900
C         -1.77100        8.80700        0.23100
H         -2.14300        8.41600       -0.55100
C         -2.05400       10.12100        0.54600
H         -2.61200       10.63600       -0.02500
C         -1.53100       10.69200        1.69100
H         -1.71300       11.60000        1.90000
C         -0.73400        9.92500        2.53800
H         -0.40000       10.30800        3.34100
C          3.76400        5.61500        5.40200
C          3.05700        5.93500        6.55600
H          2.14600        6.20100        6.49100
C          3.66400        5.87500        7.80200
H          3.16200        6.07000        8.58600
C          4.99400        5.53100        7.90200
H          5.40800        5.49000        8.75500
C          5.73000        5.24300        6.76600
H          6.65400        5.03000        6.83600
C          5.11100        5.26900        5.52200
H          5.61100        5.04900        4.74400
C          3.90500        4.49000        2.82300
C          4.66900        4.79300        1.70800
H          4.70500        5.68900        1.39300
C          5.38200        3.80400        1.04000
H          5.91200        4.02700        0.28300
C          5.31900        2.49700        1.48400
H          5.79700        1.81800        1.02300
C          4.56500        2.17100        2.59200
H          4.53300        1.27300        2.89700
C          3.85500        3.15800        3.26300
H          3.33200        2.93000        4.02300
C          1.00200        5.18100       17.00400
H          0.59800        4.39200       17.41900
H          1.71100        5.53000       17.58400
H          1.38200        4.93500       16.13500
O          0.02200        6.16700       16.82300
H         -0.21500        6.46700       17.57100
