93
C:\Users\Javier\OneDrive - Universitat de Barcelona\Tesi\4 - Contribucions\Treballs\3-PhD\chapter_1\cif\pc2p\YEKDUO.pc2p.pdb
Ru        -0.89000        1.52100        9.02800
Cl        -3.58700       -1.12400        3.53800
Cl        -3.19600       -3.83900        4.34500
Cl        -5.80800       -2.65600        4.37200
P          0.21700        3.39500        9.38900
P          1.07800        0.83900        8.14000
O         -1.87600       -0.36300        8.85800
O         -3.25200       -1.54600        7.54800
O         -3.28100        3.58700        7.36800
O         -1.30100        3.97300        6.36900
O         -0.32200        1.19100       11.19700
O         -1.73500        4.49100       11.29300
O          1.57800        2.09800        5.44600
O          3.93100       -0.14300        7.80800
N         -2.79900        2.14000        9.85400
C         -1.70200        1.78400        7.09300
C         -2.83400        0.73600        6.95300
C         -2.63400       -0.50300        7.82200
C         -2.20500        3.14400        6.97500
C         -1.78300        5.30600        6.08900
C          1.70800        3.53600        8.33900
C          2.36400        2.16200        8.29000
C          0.92100        3.19300       11.06300
C          0.49500        2.11600       11.84100
C          0.87900        1.99300       13.16400
C          1.71600        2.95200       13.71000
C          2.18000        4.00000       12.96900
C          1.76200        4.12600       11.65400
C         -0.94500        0.17200       12.01800
C         -0.38200        5.12100        9.46700
C         -1.32200        5.49400       10.45600
C         -1.76600        6.79700       10.54200
C         -1.31000        7.72500        9.67500
C         -0.39600        7.39400        8.70400
C          0.06100        6.09200        8.61000
C         -2.53200        4.82500       12.41500
C          0.98700        0.22100        6.42700
C          1.10700        0.86700        5.28900
C          0.86700        0.19900        4.02900
C          0.36800       -0.96600        3.98400
C          0.07600       -1.73300        5.10200
C          0.31100       -1.19200        6.35200
C          1.36700        2.96700        4.30400
C          1.92000       -0.59400        8.93400
C          3.26500       -0.90900        8.71400
C          3.85600       -1.97800        9.39200
C          3.12400       -2.71200       10.26700
C          1.78500       -2.43500       10.50700
C          1.20000       -1.37700        9.81500
C          5.37400       -0.22600        7.75900
C         -4.12600       -2.38100        4.64600
H         -1.03900        1.63400        6.43100
H         -3.64300        1.14700        7.23200
H         -2.90900        0.47600        6.04300
H         -1.05000        5.91100        6.11400
H         -2.42100        5.55700        6.74700
H         -2.18700        5.33300        5.23000
H          2.31000        4.17000        8.71200
H          1.46300        3.80800        7.46400
H          2.86300        2.02400        9.08600
H          2.94700        2.11800        7.54100
H          0.55400        1.26800       13.68500
H          1.99600        2.86500       14.61400
H          2.75300        4.64400       13.36800
H          2.07900        4.86600       11.14900
H         -0.32500       -0.13200       12.67000
H         -1.70400        0.54500       12.45400
H         -1.21800       -0.55800       11.47400
H         -2.36800        7.05700       11.23000
H         -1.62400        8.62100        9.73200
H         -0.12200        8.04900        8.07200
H          0.72600        5.87800        7.96700
H         -3.10200        4.10100       12.64300
H         -1.95400        5.01600       13.14400
H         -3.05500        5.59200       12.21600
H          1.06100        0.65500        3.21900
H          0.22500       -1.35500        3.12900
H         -0.27700       -2.61000        5.01400
H          0.07900       -1.63100        7.16200
H          0.54600        2.73300        3.88900
H          1.31000        3.85200        4.64400
H          2.06900        2.91800        3.66500
H          4.74700       -2.23100        9.18000
H          3.56400       -3.38100       10.77800
H          1.27800       -2.96400       11.11400
H          0.27100       -1.21600        9.92500
H          5.75800        0.41700        8.34300
H          5.66000       -0.05600        6.86900
H          5.65100       -1.09700        8.01900
H         -3.28000        2.60200        9.26300
H         -2.75600        2.47300       10.56600
H         -3.27900        1.47700       10.09800
H         -3.99000       -2.09700        5.54200
