114
C:\Users\Javier\OneDrive - Universitat de Barcelona\Tesi\4 - Contribucions\Treballs\3-PhD\chapter_1\cif\pc2p\YIKTES.pc2p.pdb
Pd         0.37800        3.78500       12.70800
P         -0.96700        2.92600       14.31700
P          1.39800        4.96400       14.50200
N          1.62100        4.43100       11.12700
O         -4.23600        0.91200        8.73900
C         -0.68600        3.00300       11.10200
C         -1.76900        2.21400       11.00300
H         -2.12700        1.84000       11.77500
C         -2.37800        1.94400        9.76500
C         -1.81400        2.42200        8.60800
H         -2.20000        2.22800        7.78500
C         -0.70500        3.17200        8.66600
H         -0.31500        3.48100        7.88000
C         -0.13000        3.49500        9.89900
C          1.12100        4.19900        9.97600
H          1.55700        4.48000        9.20400
C          2.96600        5.01300       11.20700
H          3.08000        5.34300       12.12200
C          3.99200        4.01900       10.98800
H          3.86800        3.63900       10.10500
H          3.86900        3.30600       11.63300
C          5.37400        4.50200       11.09200
H          5.98300        3.79800       10.82500
H          5.56700        4.73400       12.01400
C          5.59400        5.73600       10.19800
H          6.47600        6.10500       10.36000
H          5.54200        5.47700        9.26400
C          4.57600        6.74600       10.48400
H          4.72100        7.51600        9.91000
H          4.66900        7.04100       11.40300
C          3.17300        6.22200       10.26900
H          3.05500        5.95200        9.34500
H          2.52400        6.91600       10.47000
C         -3.61500        1.11400        9.74900
H         -3.91700        0.74000       10.54600
C          0.69200        4.23200       16.03100
H          1.15400        3.41000       16.25500
H          0.78900        4.84900       16.77400
C         -0.77200        3.95600       15.76900
H         -1.24300        4.79400       15.63800
H         -1.16000        3.50800       16.53800
C         -2.75600        2.74900       13.99400
C         -3.48500        3.85800       13.55300
C         -4.82800        3.65000       13.22300
H         -5.34800        4.36300       12.92400
C         -5.38100        2.40000       13.34100
H         -6.27200        2.28000       13.10600
C         -4.65700        1.30500       13.79800
H         -5.05600        0.46700       13.87300
C         -3.32400        1.48800       14.13900
H         -2.81800        0.77800       14.46200
C         -2.89100        5.21500       13.40100
H         -3.50200        5.78000       12.92400
H         -2.06700        5.14900       12.91200
H         -2.72100        5.58600       14.26900
C         -0.32700        1.26100       14.74100
C          0.48400        0.63600       13.78800
H          0.62100        1.08400       12.98500
C          1.07500       -0.54100       13.93300
H          1.62400       -0.89600       13.27200
C          0.83500       -1.21200       15.10600
H          1.17500       -2.06900       15.21500
C          0.12400       -0.66100       16.09200
H          0.07600       -1.10300       16.90900
C         -0.56800        0.57600       15.94600
C         -1.44000        1.06800       16.98600
H         -2.04200        1.72000       16.61800
H         -0.91500        1.47400       17.68000
H         -1.94400        0.33900       17.35200
C          3.15800        5.01800       14.75100
C          3.92500        3.82000       14.93500
C          5.31200        4.03300       15.14900
H          5.83900        3.27400       15.24700
C          5.91000        5.15500       15.22000
H          6.80900        5.20600       15.45300
C          5.16600        6.31200       14.93500
H          5.59900        7.13400       14.90700
C          3.86100        6.25800       14.70700
H          3.39600        7.04100       14.51700
C          3.31100        2.46500       14.82800
H          2.46700        2.53100       14.37700
H          3.17800        2.10500       15.70800
H          3.89500        1.88900       14.33300
C          0.78600        6.66200       14.47200
C          0.15200        7.04100       13.27500
H          0.13500        6.44600       12.56100
C          0.83000        7.59300       15.53900
C         -0.45100        8.28600       13.13900
H         -0.90000        8.57800       12.38000
C         -0.26500        9.10200       14.42000
H         -0.62800        9.96000       14.40800
C          0.30800        8.78600       15.48300
H          0.35300        9.37300       16.20300
C          1.50400        7.36300       16.83800
H          0.96800        6.77600       17.37800
H          1.61800        8.20200       17.29200
H          2.36300        6.96200       16.68700
P          3.21700        4.75500        5.83100
F          4.00200        4.07600        6.99400
F          3.19200        6.12400        6.51800
F          4.54600        5.14600        5.10300
F          1.88800        4.40100        6.53100
F          3.20400        3.41000        5.07900
F          2.49200        5.33200        4.60400
C          4.08600       10.45700       11.62800
H          4.89600        9.92400       11.76500
Cl         2.77200        9.59800       12.35300
Cl         4.34700       11.97800       12.34400
Cl         3.84100       10.61000        9.90900
C         -1.28900       12.78000       11.88000
H         -1.50800       13.61600       11.41900
Cl        -2.40000       11.47000       11.54600
Cl         0.26500       12.12200       11.45600
Cl        -1.43100       12.86700       13.63000
