101
C:\Users\Javier\OneDrive - Universitat de Barcelona\Tesi\4 - Contribucions\Treballs\3-PhD\chapter_1\cif\pc2p\YIYZOW.pc2p.pdb
Ru         9.52600        0.06500        1.84400
S         10.35100        2.34200        1.62000
P          9.13000        0.43500        4.04900
P          7.45500        0.95400        1.60600
F         10.63100        3.92100        4.19400
F         12.83700        4.39900        5.61400
F         15.24900        3.50100        4.77100
F         15.40400        1.98500        2.49400
F         13.22800        1.46700        1.07900
C         11.81000        2.62800        2.58300
C         11.77700        3.40200        3.74700
C         12.91600        3.66300        4.48400
C         14.14300        3.20300        4.06300
C         14.22400        2.45500        2.92100
C         13.06800        2.18900        2.19900
C         10.23400       -0.82400       -0.09000
H         10.29700       -0.35200       -0.96800
C          9.10800       -1.53600        0.40000
H          8.24700       -1.66700       -0.08900
C          9.44900       -2.12200        1.64000
H          8.87600       -2.74300        2.17400
C         10.80800       -1.79000        1.90900
H         11.34200       -2.10600        2.69300
C         11.28900       -0.98400        0.85300
H         12.21500       -0.62100        0.76600
C          7.96000        1.83700        4.21200
H          7.59200        1.86200        5.13100
H          8.43400        2.69000        4.04500
C          6.82400        1.66600        3.20100
H          6.40400        2.54500        3.02600
H          6.13300        1.06500        3.57800
C         10.47300        0.82700        5.22100
C         10.27000        1.60800        6.36300
H          9.41600        1.99400        6.52100
C         11.29400        1.82600        7.26400
H         11.14400        2.36000        8.03600
C         12.53800        1.26300        7.04000
H         13.24100        1.40700        7.66200
C         12.76000        0.49100        5.91400
H         13.61600        0.10300        5.76300
C         11.73200        0.28100        5.00400
H         11.89100       -0.24000        4.22600
C          8.34700       -0.94400        4.96600
C          9.02100       -2.16600        5.05500
H          9.88300       -2.24800        4.66600
C          8.46400       -3.25600        5.69600
H          8.94000       -4.07400        5.75200
C          7.19900       -3.13900        6.25700
H          6.80900       -3.88700        6.69500
C          6.51800       -1.97100        6.18800
H          5.64900       -1.91000        6.56500
C          7.08500       -0.85600        5.56400
H          6.61100       -0.03400        5.54600
C          6.15900       -0.28000        1.19400
C          5.97100       -1.36600        2.04500
H          6.48200       -1.42900        2.84500
C          5.05700       -2.35200        1.74700
H          4.93000       -3.07900        2.34400
C          4.32200       -2.28100        0.57400
H          3.70000       -2.96700        0.35800
C          4.49600       -1.22000       -0.27700
H          3.99100       -1.17200       -1.08100
C          5.39900       -0.22100        0.02400
H          5.50300        0.51500       -0.57000
C          7.14000        2.25900        0.35900
C          7.97400        2.35700       -0.75700
H          8.72800        1.78400       -0.83600
C          7.71000        3.28600       -1.74800
H          8.27800        3.34500       -2.50900
C          6.62400        4.12300       -1.63100
H          6.44900        4.76800       -2.30600
C          5.78800        4.03200       -0.53800
H          5.03900        4.61100       -0.46200
C          6.04300        3.09500        0.44500
H          5.45600        3.02600        1.19100
O          6.56000        5.60100        3.75200
H          5.87000        5.89500        3.37700
C          7.64000        5.71900        2.88700
H          7.59000        6.57400        2.41300
H          7.62000        4.98300        2.23700
H          5.67700        5.50600        3.39900
O          5.85300       -5.49200        9.21800
O          6.90400       -5.21300        2.33900
O          5.60100        7.42200        3.75200
O          7.42200        8.38100        3.75200
O          8.38100        6.56000        3.75200
H          5.89500        8.11300        3.37700
H          8.11300        8.08700        3.37700
H          8.08700        5.87000        3.37700
C          5.71900        6.34200        2.88700
C          6.34200        8.26400        2.88700
C          8.26400        7.64000        2.88700
H          6.57400        6.39300        2.41300
H          7.40800        7.59000        2.41300
H          6.39300        7.40800        2.41300
H          4.98300        6.36200        2.23700
H          8.99900        7.62000        2.23700
H          6.36200        8.99900        2.23700
H          8.47600        5.67700        3.39900
H          8.30500        8.47600        3.39900
H          5.50600        8.30500        3.39900
