75
C:\Users\Javier\OneDrive - Universitat de Barcelona\Tesi\4 - Contribucions\Treballs\3-PhD\chapter_1\cif\pc2p\YODXUL.pc2p.pdb
Pd         5.98400        4.05900        4.21100
P          7.09500        2.40900        3.07400
P          5.11800        2.34300        5.44500
F          3.18000        5.51200        3.71800
F          1.74800        7.24700        5.17500
F          2.69500        8.13400        7.57200
F          5.10200        7.25400        8.48400
F          6.54900        5.54200        7.02900
F          8.56700        5.90200        4.78500
F         10.08900        7.40400        3.18800
F          9.28800        7.97400        0.67300
F          6.97800        6.89800       -0.28800
F          5.47200        5.31300        1.26600
C          4.92700        5.46500        5.31600
C          3.69500        5.92200        4.91100
C          2.93400        6.80800        5.65200
C          3.41600        7.25400        6.86000
C          4.62500        6.81300        7.29600
C          5.36000        5.94200        6.53100
C          6.96700        5.52900        3.08300
C          8.13200        6.11100        3.52300
C          8.92000        6.90700        2.72200
C          8.52800        7.18300        1.45100
C          7.36800        6.66000        0.98200
C          6.59900        5.84200        1.80400
C          8.84600        2.32400        3.55700
C          9.21600        2.90300        4.76400
C         10.51400        2.75600        5.24200
C         11.43100        2.05400        4.50900
C         11.07700        1.47100        3.31500
C          9.78500        1.59400        2.83400
C          7.02100        2.39800        1.26600
C          7.95100        3.09000        0.51700
C          7.80400        3.17200       -0.87000
C          6.73400        2.56600       -1.47900
C          5.81400        1.89100       -0.75100
C          5.94300        1.79800        0.62600
C          6.42900        0.78400        3.63800
C          6.18100        0.87200        5.14200
C          5.04100        2.58800        7.24500
C          6.19200        2.44600        8.00000
C          6.15900        2.79800        9.36100
C          5.03100        3.28200        9.91800
C          3.90400        3.42200        9.18300
C          3.88700        3.07300        7.84300
C          3.48600        1.76600        4.90900
C          2.83100        0.74800        5.58500
C          1.64900        0.23300        5.08100
C          1.12900        0.71500        3.90600
C          1.76200        1.73600        3.23800
C          2.94500        2.28000        3.73300
H          8.58000        3.40900        5.25700
H         10.76100        3.13600        6.07700
H         12.32300        1.96800        4.82500
H         11.72100        0.97800        2.82000
H          9.53500        1.18600        2.01300
H          8.68300        3.51400        0.94900
H          8.44200        3.64200       -1.39400
H          6.64000        2.61300       -2.42500
H          5.07000        1.48500       -1.18200
H          5.30000        1.32800        1.14300
H          5.61300        0.59800        3.19000
H          7.05800        0.09700        3.44900
H          7.00700        0.96800        5.59900
H          5.74100        0.08700        5.44500
H          6.98600        2.10600        7.60300
H          6.94200        2.70400        9.89200
H          5.02900        3.52600       10.83600
H          3.11600        3.76200        9.58700
H          3.09700        3.16600        7.32500
H          3.20200        0.40200        6.38800
H          1.19200       -0.45500        5.54800
H          0.32900        0.34300        3.55500
H          1.38900        2.06900        2.42900
H          3.38400        2.98700        3.27600
