81
C:\Users\Javier\OneDrive - Universitat de Barcelona\Tesi\4 - Contribucions\Treballs\3-PhD\chapter_1\cif\pc2p\YUFDEJ.pc2p.pdb
Rh         6.48400        5.42500        3.08600
P          8.39900        6.68500        2.90700
P          6.17700        6.09000        0.93700
O          8.68500        7.70400        5.38700
O         11.06000        7.20600        3.06000
O         11.01100        8.03500        5.25800
C          8.57200        7.29000        1.17900
H          9.10800        8.12300        1.17100
H          9.04900        6.61300        0.63700
C          7.19400        7.55800        0.57000
H          7.26800        7.69400       -0.40600
H          6.79000        8.36800        0.97400
C          7.11800        8.90400        4.09400
H          6.40400        8.26100        4.28800
H          6.94600        9.33100        3.22900
H          7.14300        9.58700        4.79500
C          8.44400        8.18200        4.04400
C          9.60000        9.09000        3.66100
H          9.57200        9.91200        4.21000
H          9.51400        9.35100        2.70900
C         10.93400        8.37900        3.87500
C         12.13500        9.23600        3.55700
H         12.95300        8.75100        3.79400
H         12.08800       10.06900        4.07200
H         12.14400        9.44400        2.59900
C         10.08200        6.94500        7.13000
H         10.96100        6.57200        7.35100
H          9.38100        6.33100        7.43200
H          9.97200        7.81100        7.57700
C          9.97700        7.13200        5.64600
C         10.15700        5.85400        4.85200
H          9.43300        5.21900        5.08000
H         11.02100        5.43300        5.09600
C         10.13600        6.13400        3.35300
C         10.56900        4.94800        2.51600
H         10.62200        5.21400        1.57500
H          9.91800        4.22200        2.61600
H         11.45000        4.64000        2.81800
C          7.26900        3.53500        0.24500
H          6.54600        3.07200        0.71800
H          7.99900        3.72400        0.87200
H          7.60100        2.96600       -0.48000
C          6.74600        4.83400       -0.33000
H          7.48700        5.25100       -0.85500
C          5.55600        4.66400       -1.27100
H          4.99100        3.91100       -0.96200
H          5.87600        4.45700       -2.18300
C          4.73500        5.95500       -1.28800
H          5.22400        6.66600       -1.77500
H          3.86700        5.80500       -1.73900
C          4.51400        6.36400        0.16400
H          3.87500        5.71300        0.57300
C          3.95000        7.76100        0.36600
H          4.58400        8.42300        0.01700
H          3.80500        7.92000        1.32100
H          3.09800        7.84100       -0.11200
C          4.35200        5.35800        3.60400
H          3.77900        5.92600        3.01300
C          4.64700        4.13400        3.06700
H          4.26200        3.98000        2.15700
C          4.85900        2.87400        3.87000
H          4.27600        2.90300        4.66900
H          4.58100        2.09700        3.32400
C          6.27800        2.66900        4.31500
H          6.76200        2.18000        3.60200
H          6.27400        2.09400        5.12000
C          7.04200        3.93200        4.63300
H          8.03000        3.78100        4.68100
C          6.65100        5.01800        5.31500
H          7.38800        5.51100        5.77800
C          5.29800        5.14300        5.96600
H          5.00900        4.24500        6.27000
H          5.38200        5.71800        6.76700
C          4.23900        5.71300        5.07300
H          4.25900        6.69900        5.15600
H          3.35700        5.40500        5.40000
B          5.48900       11.81200        1.95800
F          6.33100       11.98900        3.05400
F          5.71200       12.83300        1.03800
F          4.16800       11.88300        2.37800
F          5.71700       10.59400        1.36900
