71
C:\Users\Javier\OneDrive - Universitat de Barcelona\Tesi\4 - Contribucions\Treballs\3-PhD\chapter_1\cif\pc2p\YUNBAN.pc2p.pdb
Pd        -0.67600        2.92400        4.75800
Cl        -2.36800        3.41900        3.21100
Cl        -2.04500        1.46800        6.03800
P          0.73800        4.15800        3.56900
C          1.33700        3.38700        2.06900
C          1.09600        4.22600        1.04600
C          0.48600        5.52200        1.42700
C          0.19700        5.64400        2.73700
C          1.96300        2.02400        2.04200
H          2.00300        1.70100        1.11800
H          1.42400        1.40700        2.58000
H          2.86900        2.07300        2.41200
C          1.37600        3.92200       -0.40500
H          1.87400        3.08100       -0.47200
H          1.90600        4.64800       -0.79400
H          0.52900        3.83900       -0.89100
C          0.24000        6.58600        0.38900
H         -0.17900        7.36400        0.81200
H         -0.35500        6.23200       -0.30500
H          1.09200        6.85100       -0.01400
C         -0.47700        6.76600        3.46400
H         -0.62200        7.51500        2.84800
H          0.08800        7.06000        4.20900
H         -1.34100        6.45900        3.81200
C          2.15700        4.62100        4.63500
H          2.93200        4.87700        4.07400
H          1.91500        5.39600        5.20300
C          2.52800        3.41100        5.52600
H          3.11400        3.70700        6.26800
H          3.02100        2.73900        4.99200
P          0.99600        2.66500        6.20400
C          0.66300        3.33700        7.83500
C          0.80900        2.34200        8.73000
C          1.20900        1.04500        8.15400
C          1.39400        1.03800        6.83200
C          0.26200        4.74900        8.04900
H          0.15000        4.91400        9.00900
H         -0.58300        4.92300        7.58700
H          0.95700        5.34300        7.69600
C          0.59200        2.50500       10.20900
H          0.38000        3.44100       10.40700
H          1.40600        2.24600       10.68900
H         -0.15200        1.93400       10.49500
C          1.42500       -0.14400        9.05500
H          1.76000       -0.89900        8.52700
H          0.57600       -0.39300        9.47800
H          2.07900        0.08400        9.74800
C          1.81000       -0.07300        5.90600
H          2.68400        0.13900        5.51500
H          1.14700       -0.16800        5.19200
H          1.87200       -0.91100        6.41000
C          3.67300        9.44600        2.80100
H          4.21200        9.60700        3.61600
H          3.05800       10.21400        2.69600
Cl         2.74600        8.04400        3.04000
Cl         4.72300        9.40900        1.46000
C          3.20200        9.36500        2.83800
H          2.52900        9.84400        3.38100
H          4.03600        9.90100        2.85300
Cl         3.52000        7.85700        3.56600
Cl         2.64900        9.27300        1.23300
C          0.85700       -2.79400       12.27800
H          0.98300       -3.40100       13.04900
H          0.08600       -3.13700       11.75600
Cl         2.24700       -2.88000       11.29600
Cl         0.44800       -1.25000       12.87700
C          1.26800       -2.91600       12.68300
H          0.69600       -3.68500       12.43600
H          1.67800       -3.12000       13.56100
Cl         2.51400       -2.77400       11.52500
Cl         0.28100       -1.54700       12.85800
