182
C:\Users\Javier\OneDrive - Universitat de Barcelona\Tesi\4 - Contribucions\Treballs\3-PhD\chapter_1\cif\pc2p\ZABQUS.pc2p.pdb
Ge         3.46900       16.87500        0.13100
Ge         1.06300       17.44500       -0.49800
Ge         2.28600       17.29800        2.31900
Ge         4.66900       18.78100        1.30800
Ge         3.28300       18.76700       -1.52400
Ge         1.03500       19.98900       -0.93200
Ge         0.61300       19.00600        1.54400
Ge         3.36700       20.66300        0.22400
Ge         1.32000       21.40000        1.46400
Rh         2.89200       19.76000        2.87100
P          2.68600       21.50100        4.44400
P          4.06900       18.77500        4.56500
Si         4.13300       14.72300       -0.68300
Si         3.72000       13.17500        1.04800
Si         6.39700       14.79500       -1.29500
Si         2.86000       14.26000       -2.61400
Si        -1.72300       18.57500        1.98700
Si        -2.37100       19.74200        3.91800
Si        -3.02500       19.39600        0.20500
Si        -2.15300       16.28300        2.29000
Si         4.61400       22.27700       -1.09700
Si         6.89400       21.73300       -0.91200
Si         3.95200       24.43800       -0.45400
Si         4.09500       22.18500       -3.40800
C          3.03900       20.75900        6.10600
H          3.15400       21.47200        6.78300
H          2.29100       20.17500        6.38700
C          4.30800       19.95500        5.97000
H          4.49200       19.45900        6.80700
H          5.07600       20.55400        5.78600
C          1.22700       22.56200        4.81200
C          0.43500       22.35300        5.94000
H          0.60900       21.61500        6.51200
C         -0.60700       23.22000        6.22700
H         -1.13800       23.07000        7.00100
C         -0.88600       24.28700        5.42100
H         -1.60600       24.87000        5.62800
C         -0.11100       24.50900        4.29700
H         -0.29700       25.25000        3.73100
C          0.93800       23.65500        3.99300
H          1.46500       23.81500        3.21900
C          4.02200       22.78100        4.46300
C          5.21700       22.54400        3.80000
H          5.31000       21.76600        3.26300
C          6.28200       23.43500        3.91200
H          7.11000       23.24500        3.48700
C          6.12400       24.58700        4.64200
H          6.84000       25.21000        4.69500
C          4.94800       24.85000        5.29300
H          4.85000       25.65200        5.79200
C          3.89700       23.94600        5.22300
H          3.09000       24.12000        5.69300
C          5.76600       18.19000        4.23900
C          6.82300       19.09700        4.28600
H          6.67600       19.98600        4.58700
C          8.09200       18.69600        3.89300
H          8.81100       19.31700        3.90800
C          8.31000       17.42000        3.48400
H          9.18700       17.14900        3.23600
C          7.28400       16.51300        3.42400
H          7.44400       15.62200        3.13500
C          5.99300       16.91900        3.79900
H          5.27300       16.30200        3.74400
C          3.30300       17.38900        5.50200
C          4.05300       16.48300        6.25500
H          5.00000       16.55500        6.27900
C          3.41400       15.48000        6.96400
H          3.93000       14.84300        7.44500
C          2.04300       15.39300        6.98300
H          1.61900       14.68900        7.45700
C          1.28800       16.32000        6.31900
H          0.34000       16.29100        6.37500
C          1.91900       17.30200        5.56000
H          1.39100       17.92500        5.07300
C          4.47900       13.76000        2.64500
H          4.44100       13.04000        3.30900
H          3.98100       14.53700        2.97800
H          5.41200       14.01300        2.49000
C          4.42700       11.48300        0.62800
H          5.40200       11.54600        0.55200
H          4.05300       11.17600       -0.22500
H          4.19400       10.84700        1.33400
C          1.87400       12.99500        1.36000
H          1.72500       12.34200        2.07600
H          1.43200       12.68600        0.54100
H          1.50100       13.86100        1.62600
C          7.46600       15.38100        0.11900
H          8.39500       15.45900       -0.18200
H          7.41500       14.73700        0.85700
H          7.14900       16.25600        0.42800
C          6.99900       13.08900       -1.79000
H          7.97600       13.09900       -1.87000
H          6.60400       12.84100       -2.65200
H          6.73300       12.43900       -1.10900
C          6.61700       15.97000       -2.73500
H          6.18900       16.82700       -2.52700
H          6.20600       15.58600       -3.53700
H          7.57400       16.11400       -2.89600
C          1.05900       13.89200       -2.21800
H          0.68400       14.62700       -1.69100
H          1.00100       13.05900       -1.70500
H          0.55400       13.79700       -3.05300
C          3.56900       12.72500       -3.42400
H          3.03400       12.49400       -4.21200
H          3.54900       11.98000       -2.78600
H          4.49500       12.89600       -3.69500
C          2.89500       15.65800       -3.82700
H          3.81500       15.80900       -4.12600
H          2.55400       16.47200       -3.39700
H          2.33100       15.43700       -4.59700
C         -4.08600       19.20300        4.46700
H         -4.08400       18.24100        4.64600
H         -4.73300       19.40500        3.76000
H         -4.33300       19.68700        5.28300
C         -1.16900       19.37000        5.30600
H         -0.27400       19.68100        5.05600
H         -1.14600       18.40400        5.46700
H         -1.45900       19.83000        6.12100
C         -2.43100       21.58300        3.59000
H         -2.62200       22.05700        4.42700
H         -3.13600       21.77600        2.93800
H         -1.56700       21.88000        3.23600
C         -2.50300       21.15200       -0.18700
H         -1.61300       21.14500       -0.59700
H         -2.47800       21.67800        0.64000
H         -3.14600       21.55300       -0.80900
C         -2.88900       18.31900       -1.32800
H         -3.35300       18.75200       -2.07400
H         -3.29800       17.44600       -1.15100
H         -1.94400       18.19600       -1.55700
C         -4.85500       19.45900        0.69800
H         -4.97600       20.11300        1.41900
H         -5.14000       18.57400        1.01000
H         -5.39300       19.72200       -0.07600
C         -4.01700       16.01900        2.28400
H         -4.37400       16.22900        1.39600
H         -4.43200       16.60500        2.95100
H         -4.21400       15.08400        2.50300
C         -1.49500       15.68800        3.94400
H         -1.68300       14.73000        4.04400
H         -1.93200       16.18300        4.66700
H         -0.52700       15.83600        3.98300
C         -1.40800       15.21400        0.95600
H         -0.43300       15.31000        0.96500
H         -1.75500       15.49300        0.08200
H         -1.64600       14.27700        1.11700
C          7.92100       22.87300       -2.00500
H          7.77800       23.80400       -1.73300
H          7.65100       22.76100       -2.94000
H          8.87100       22.64800       -1.91000
C          7.47400       21.90400        0.86400
H          8.43000       21.69800        0.91700
H          6.97400       21.28200        1.43300
H          7.32100       22.82200        1.17200
C          7.22800       19.96400       -1.44900
H          8.16200       19.73700       -1.26100
H          7.05700       19.87700       -2.40900
H          6.63800       19.35700       -0.95500
C          5.13600       25.75200       -1.08800
H          4.78800       26.64000       -0.86100
H          5.22200       25.67200       -2.06000
H          6.01300       25.62900       -0.67000
C          3.84900       24.62600        1.39800
H          3.40900       25.47500        1.61500
H          4.75200       24.62100        1.77700
H          3.33200       23.88400        1.77300
C          2.22200       24.70300       -1.12200
H          1.64700       23.96100       -0.84300
H          2.25300       24.74200       -2.10100
H          1.86300       25.54500       -0.77400
C          5.10300       20.89800       -4.32200
H          4.85400       20.00400       -4.00800
H          6.05600       21.04900       -4.15400
H          4.92600       20.96700       -5.28400
C          4.54600       23.84600       -4.18200
H          5.48500       24.05100       -3.99300
H          3.97600       24.54900       -3.80300
H          4.40900       23.80400       -5.15100
C          2.27600       21.87400       -3.77300
H          2.06700       22.18000       -4.68100
H          1.72400       22.36500       -3.12900
H          2.08700       20.91500       -3.70000
