132
C:\Users\Javier\OneDrive - Universitat de Barcelona\Tesi\4 - Contribucions\Treballs\3-PhD\chapter_1\cif\pc2p\ZACPEC.pc2p.pdb
C          7.46200        3.95800        3.69200
C          8.20200        4.63500        4.71500
Ru         3.34100        2.44800        0.30000
P          5.13800        1.95700       -1.01900
P          3.86400        4.60400       -0.22900
C          8.50100        5.20200        8.09500
C          9.00300        5.23900       10.45800
H          9.23300        5.72800       11.21500
C          9.52900        3.48100        2.52100
H          9.97700        3.09400        1.80300
C          5.42300        4.36200        4.93500
H          4.50100        4.27700        5.03200
C          5.25700        3.26600        2.74200
C          4.59300        2.90100        1.79800
C          5.76400        3.50400       -1.80900
H          6.69700        3.39900       -2.05200
H          5.25800        3.69300       -2.61400
C          5.61100        4.64600       -0.81800
H          5.80200        5.49500       -1.24900
H          6.22200        4.53200       -0.07400
C          2.60900        7.40100       -3.00400
H          2.70100        8.31500       -3.14700
C          8.53400        3.16500        9.40800
H          8.44200        2.24100        9.45200
O          8.96600        3.14600       11.71900
C          7.73000        8.04800        5.94800
H          6.92900        7.70400        5.62500
O          9.58100       11.23800        6.14900
C         10.09900        9.08000        6.88100
H         10.89800        9.42500        7.20700
C          6.64300        1.23600       -0.24800
C          8.89000        0.04500        0.87700
H          9.63900       -0.34900        1.26400
C          3.82900        5.88000        1.09600
C          3.03300        5.46000       -1.64200
C          1.94100        6.64100       -3.91300
H          1.57700        7.03700       -4.67300
N          8.26900        5.84700        6.85500
C          8.36700        3.81100        8.19500
H          8.16400        3.31400        7.43600
C          8.83700        3.87400       10.55700
C          8.60500        7.21100        6.61600
C          8.02100        9.39700        5.74800
H          7.42500        9.94300        5.28800
C          9.20800        9.91500        6.23900
C          9.82100        7.74200        7.04400
H         10.45000        7.18700        7.44500
C         10.25200        4.14900        3.52100
H         11.17900        4.20000        3.46400
C          6.16000        5.00300        5.94500
H          5.71900        5.32600        6.69700
C          6.03000        3.85200        3.80000
C          4.96700        0.84000       -2.47000
C          5.49500       -0.44500       -2.48200
H          5.96000       -0.75400       -1.73800
C          5.34300       -1.27700       -3.58200
H          5.69400       -2.13900       -3.56400
C          4.68000       -0.83500       -4.68600
H          4.59700       -1.38600       -5.43000
C          4.13000        0.43700       -4.69800
H          3.66900        0.74000       -5.44700
C          4.27200        1.25800       -3.58700
H          3.89100        2.10600       -3.59600
C          7.90100        1.34800       -0.84500
H          7.98900        1.82100       -1.64100
C          9.02000        0.76300       -0.27300
H          9.85500        0.86100       -0.67100
C          7.65900       -0.10200        1.46800
H          7.57800       -0.61100        2.24200
C          6.53400        0.50300        0.92300
H          5.70900        0.41800        1.34300
C          2.67300        6.05600        1.79200
H          1.91200        5.58600        1.53800
C          2.60400        6.93600        2.88900
H          1.80900        7.04400        3.35900
C          4.91500        6.62000        1.45100
H          5.70600        6.54700        0.96700
C          2.34700        4.70100       -2.56600
H          2.24800        3.78700       -2.42600
C          1.80100        5.28600       -3.70800
H          1.34500        4.76300       -4.32700
C          3.15100        6.82400       -1.87600
H          3.60200        7.35700       -1.26000
C          1.43900        1.50000       -0.52300
C          2.19500        0.50800        0.16300
C          2.62100       -0.81600       -0.40500
H          3.37400       -1.14900        0.08700
H          2.86600       -0.70400       -1.32800
H          1.89500       -1.44100       -0.34200
C          2.30300        0.89500        1.51700
C          2.91200        0.10400        2.63700
H          2.22000       -0.35300        3.12000
H          3.37800        0.69800        3.23100
H          3.52900       -0.53700        2.27700
C          1.60700        2.13100        1.67900
C          1.38100        2.82700        2.99600
H          0.93200        3.66300        2.84300
H          2.22600        2.99200        3.42000
H          0.84000        2.27300        3.56300
C          1.08300        2.49800        0.42200
C          0.14300        3.64800        0.15100
H         -0.75700        3.31900        0.08900
H          0.38600        4.07200       -0.67600
H          0.20200        4.28500        0.86600
C          0.87000        1.33400       -1.91000
H          1.56600        1.05700       -2.51000
H          0.50400        2.17000       -2.20700
H          0.17800        0.66900       -1.89400
C          7.51500        5.16100        5.84200
C          9.06100        3.85100       12.91700
H          9.89900        4.31900       12.94800
H          9.01200        3.23700       13.65500
H          8.34000        4.48100       12.97800
C          8.83400        5.89000        9.25100
H          8.94700        6.81300        9.21300
C          8.83000       12.10300        5.32800
H          8.78600       11.74200        4.43800
H          9.24900       12.96600        5.30200
H          7.94100       12.18900        5.68100
C          9.60800        4.72800        4.57900
H         10.10100        5.18900        5.21900
C          8.16400        3.39700        2.60200
H          7.69100        2.96300        1.92900
C          3.70700        7.61800        3.24300
H          3.67700        8.18100        3.98400
C          4.83900        7.50500        2.56000
H          5.58300        8.00400        2.80800
C          0.00000       -0.86300        5.33400
H         -0.75400       -1.00300        5.92800
H         -0.38700       -0.68200        4.46400
Cl         0.55900        0.46100        5.76300
Cl         0.57000       -2.16600        5.19100
