121
C:\Users\Javier\OneDrive - Universitat de Barcelona\Tesi\4 - Contribucions\Treballs\3-PhD\chapter_1\cif\pc2p\ZACPAY.pc2p.pdb
Ru         1.35000        2.06800        4.75700
P          1.20900        2.40800        6.98900
P         -0.12500        3.77700        4.68600
O         10.92500       10.07300        1.79500
O          1.56900        9.91000       -0.07200
N          5.80100        8.40400        3.23300
C          0.45700        4.07200        7.35700
H         -0.39100        3.94400        7.81100
H          1.04400        4.55900        7.95700
C          0.22900        4.90000        6.10500
H          1.01700        5.43200        5.91400
H         -0.51900        5.50300        6.24100
C         -0.08000        4.85100        3.20300
C         -1.02400        4.71700        2.18200
H         -1.72800        4.11800        2.28600
C         -0.92900        5.45700        1.02500
H         -1.57000        5.36000        0.35800
C          0.10800        6.33900        0.85400
H          0.16700        6.84600        0.07600
C          1.05800        6.47000        1.83500
H          1.77000        7.05500        1.71200
C          0.96400        5.73600        3.00800
H          1.60900        5.84100        3.67000
C         -1.93700        3.51300        4.86400
C         -2.45300        2.26400        5.08300
H         -1.88100        1.53300        5.13900
C         -3.82500        2.07900        5.22300
H         -4.16300        1.22600        5.37400
C         -4.67700        3.14200        5.13900
H         -5.59400        3.01300        5.23300
C         -4.18700        4.38600        4.91900
H         -4.76800        5.11000        4.85200
C         -2.82700        4.58100        4.79500
H         -2.49900        5.44200        4.66300
C          0.19500        1.25700        8.00300
C          0.77000        0.15300        8.60400
H          1.69000        0.02900        8.54900
C         -0.00400       -0.77000        9.28600
H          0.39900       -1.51000        9.67800
C         -1.35200       -0.60200        9.38500
H         -1.86600       -1.22000        9.85200
C         -1.94200        0.47000        8.79900
H         -2.86200        0.58300        8.86100
C         -1.17900        1.39500        8.11100
H         -1.59600        2.12400        7.71200
C          2.75100        2.41800        7.98900
C          2.71800        2.76500        9.33100
H          1.91200        3.00700        9.72500
C          3.88000        2.75500       10.08900
H          3.85100        2.98800       10.98900
C          5.07600        2.40000        9.51000
H          5.85400        2.39700       10.01800
C          5.12200        2.05100        8.18900
H          5.93200        1.80700        7.80200
C          3.95700        2.06100        7.42100
H          3.99400        1.82600        6.52200
C          2.78000        0.77400        3.61700
C          1.79600        1.30000        2.71900
C          0.54800        0.75100        3.12100
C          0.73900       -0.05500        4.27400
C         -0.27300       -0.93600        4.95800
H         -0.05600       -1.85700        4.79800
H         -1.14800       -0.74800        4.61100
H         -0.26000       -0.76400        5.90300
C          2.14000       -0.04200        4.57200
C          2.82100       -0.92200        5.58700
H          3.05100       -1.76100        5.18100
H          2.22900       -1.07600        6.32700
H          3.62000       -0.49000        5.90100
C         -0.72900        0.88100        2.32500
H         -0.81100        1.77900        1.99600
H         -1.47900        0.67600        2.88800
H         -0.70800        0.26900        1.58500
C          2.06200        2.13200        1.49800
H          2.27900        1.55600        0.76000
H          2.79800        2.72400        1.66800
H          1.28000        2.64500        1.28400
C          4.27000        0.99100        3.49800
H          4.68400        0.84300        4.35000
H          4.44000        1.89100        3.21100
H          4.63200        0.37700        2.85400
C          2.71500        3.53700        4.86500
C          3.55700        4.40500        4.96000
C          4.49700        5.48100        5.13400
C          5.21200        5.63000        6.32700
H          5.08700        5.02400        7.02100
C          6.10300        6.67600        6.47600
H          6.57600        6.76200        7.27200
C          6.30400        7.59200        5.46800
H          6.90500        8.29200        5.58800
C          5.60600        7.46800        4.26800
C          7.11300        8.84300        2.89400
C          7.32800       10.16500        2.55700
H          6.62000       10.76600        2.58600
C          8.58800       10.61100        2.17500
H          8.71500       11.50100        1.93700
C          9.64200        9.73700        2.14900
C         11.16600       11.41200        1.41400
H         10.58700       11.64600        0.68500
H         12.08100       11.50600        1.13900
H         10.99500       11.99200        2.15900
C          9.44100        8.40800        2.48100
H         10.15400        7.81100        2.45800
C          8.18500        7.96900        2.84600
H          8.05700        7.07300        3.06200
C          4.72800        8.76500        2.36400
C          4.84900        8.64300        1.00400
H          5.63500        8.29900        0.64500
C          3.81500        9.02400        0.15100
H          3.91400        8.93900       -0.77000
C          2.65900        9.52300        0.67300
C          1.60800        9.70100       -1.46300
H          2.33500       10.20000       -1.84200
H          0.78100        9.99300       -1.85500
H          1.73400        8.76600       -1.64400
C          2.52600        9.65200        2.04200
H          1.73700        9.98900        2.39900
C          3.55800        9.28500        2.88400
H          3.46500        9.38700        3.80300
C          4.71100        6.41300        4.11400
H          4.24500        6.32500        3.31400
