167
C:\Users\Javier\OneDrive - Universitat de Barcelona\Tesi\4 - Contribucions\Treballs\3-PhD\chapter_1\cif\pc2p\ZAKVEP.pc2p.pdb
Rh         0.32100        0.84800       13.25600
P          0.55400       -1.35300       12.86000
P         -1.82600        0.46200       12.73800
C          2.01900       -1.86600       11.89300
C          2.11000       -1.25200       10.49000
C          3.28000       -2.03900        9.86700
C          3.12600       -3.45700       10.41600
C          2.17600       -3.38200       11.62900
C          0.63500       -2.41400       14.36400
C          1.91800       -2.20100       15.19700
C          1.47700       -2.22900       16.66500
C          0.03000       -2.64500       16.69200
C         -0.52500       -2.20700       15.34600
C         -0.89000       -2.03300       11.96500
C         -2.15500       -1.33100       12.46700
C         -2.90000        0.96600       14.18900
C         -4.21700        0.17000       14.30500
C         -5.10600        1.10900       15.12600
C         -4.81300        2.47700       14.52200
C         -3.30600        2.44600       14.23100
C         -2.37400        1.27100       11.19800
C         -3.88700        1.32400       10.87600
C         -3.95900        1.53600        9.37300
C         -2.55100        1.38000        8.82100
C         -1.78400        0.64000        9.91600
B          0.29200        4.59600       12.02200
C          0.73300        3.26000       12.89600
C          1.91400        2.54300       12.61000
C          2.48500        1.64700       13.55300
C          1.92500        1.47500       14.83400
C          0.71900        2.11800       15.12600
C          0.11700        2.93900       14.14600
C          3.88200        1.12600       13.28300
C          0.14400        1.99900       16.51400
C          0.46400        4.45100       10.38900
C          0.68100        3.26100        9.69900
C          0.75400        3.21600        8.30400
C          0.58500        4.36900        7.54700
C          0.35100        5.55600        8.20800
C          0.31200        5.60300        9.59700
C          1.01600        1.94600        7.55900
C          0.10500        6.81900        7.43300
C          1.30500        5.81400       12.55900
C          0.85900        7.14700       12.56500
C          1.66200        8.20100       12.96900
C          2.95200        7.97600       13.40500
C          3.43200        6.67700       13.40900
C          2.62200        5.61900       12.99800
C          1.12800        9.59700       12.88700
C          4.81600        6.42900       13.92600
C         -1.24200        5.05900       12.38500
C         -2.31700        5.05100       11.49000
C         -3.59700        5.46300       11.86800
C         -3.87200        5.86700       13.15700
C         -2.82600        5.89500       14.05500
C         -1.54300        5.52800       13.67100
C         -4.72900        5.47900       10.89100
C         -3.05700        6.28800       15.48200
F          4.77700        2.08800       13.53100
F          4.19300        0.08200       14.05000
F          4.05700        0.75200       12.02100
F          0.99800        2.43500       17.42100
F         -0.96100        2.71500       16.67500
F         -0.17000        0.75800       16.84400
F          1.26500        0.90200        8.35000
F          2.06400        2.05000        6.73300
F         -0.01900        1.59400        6.78300
F          0.95000        7.78700        7.73700
F          0.20900        6.63400        6.11100
F         -1.11800        7.29800        7.63400
F          1.13500       10.07600       11.65700
F         -0.14100        9.68100       13.30600
F          1.79200       10.46000       13.63400
F         -5.42200        6.61600       10.91900
F         -4.33400        5.33100        9.64200
F         -5.60400        4.52400       11.10600
F         -4.25200        6.82900       15.68000
F         -2.17000        7.20000       15.91600
F         -2.92100        5.27700       16.32400
F          5.65000        7.38800       13.62900
F          4.85900        6.31000       15.23000
F          5.35800        5.31600       13.44100
H          2.79800       -1.57600       12.40800
H          2.29500       -0.31400       10.52800
H          1.28500       -1.39900       10.01000
H          4.12900       -1.65900       10.14900
H          3.23600       -2.03100        8.90000
H          3.98700       -3.80400       10.70000
H          2.76200       -4.04000        9.72900
H          2.54100       -3.84300       12.40000
H          1.32100       -3.77400       11.41500
H          0.62500       -3.33800       14.06000
H          2.55100       -2.91800       15.02400
H          2.33800       -1.35400       14.98000
H          2.01700       -2.85800       17.17400
H          1.57700       -1.33700       17.03800
H         -0.46500       -2.23200       17.42200
H         -0.03800       -3.60000       16.76600
H         -0.77700       -1.27500       15.37100
H         -1.28700       -2.74000       15.09200
H         -0.94900       -2.97800       12.11800
H         -0.77400       -1.86500       11.02200
H         -2.43300       -1.71900       13.31300
H         -2.87600       -1.44900       11.83400
H         -2.37700        0.77600       15.00900
H         -4.07600       -0.67400       14.76700
H         -4.60400       -0.00200       13.42900
H         -4.85400        1.10700       16.06400
H         -6.04300        0.87000       15.03900
H         -5.02100        3.19000       15.14800
H         -5.32000        2.60300       13.69900
H         -2.83000        2.90100       14.93800
H         -3.11700        2.87100       13.37700
H         -2.05000        2.19300       11.23500
H         -4.33000        2.04300       11.36100
H         -4.30800        0.47600       11.10700
H         -4.32100        2.41400        9.16500
H         -4.51900        0.85000        8.97900
H         -2.15300        2.24100        8.65200
H         -2.54500        0.87200        8.00200
H         -1.96900       -0.30300        9.88500
H         -0.82300        0.77000        9.85700
H          2.32400        2.60500       11.73200
H          2.33200        0.85900       15.47000
H         -0.72700        3.34500       14.36100
H          0.79100        2.46000       10.16700
H          0.63100        4.34000        6.61200
H          0.17200        6.43400       10.02800
H         -0.01700        7.33200       12.30300
H          3.48600        8.68900       13.68400
H          2.98500        4.74800       13.01300
H         -2.16900        4.76600       10.61100
H         -4.72500        6.12400       13.41400
H         -0.86400        5.58900       14.28500
F          5.74300        6.73500       13.06100
F          5.09300        7.13500       15.01700
F          5.02400        5.18500       14.24600
C         -3.43300        0.85000       13.60200
C         -3.41300        0.32000       15.04500
C         -4.58500        1.09900       15.68800
C         -4.45900        2.49200       15.09600
C         -3.74800        2.34300       13.76000
C         -3.85500        0.99600       10.98300
C         -4.01300        0.69900        9.49300
C         -2.67100        0.10700        9.07800
C         -1.65300        0.83400        9.94200
F         -4.81000        6.60100       10.21900
F         -4.63800        4.51300        9.97400
F         -5.89600        5.31900       11.46000
H         -4.16600        0.41500       13.11800
H         -2.57200        0.52700       15.48700
H         -3.56500       -0.63700       15.07200
H         -4.50100        1.13000       16.65400
H         -5.43900        0.70200       15.44500
H         -3.94100        3.05200       15.69000
H         -5.33500        2.88300       14.96700
H         -2.92700        2.85600       13.75600
H         -4.32400        2.64600       13.03800
H         -2.25100        2.23700       11.30400
H         -4.37800        1.77100       11.22500
H         -4.14100        0.23200       11.51200
H         -4.72600        0.06000        9.35200
H         -4.20000        1.51200        8.98700
H         -2.64500       -0.84700        9.26800
H         -2.49600        0.24700        8.13500
H         -0.90500        0.25100       10.16600
H         -1.31800        1.61000        9.46600
