188
C:\Users\Javier\OneDrive - Universitat de Barcelona\Tesi\4 - Contribucions\Treballs\3-PhD\chapter_1\cif\pc2p\ZAKVAL.pc2p.pdb
Rh        14.10900        9.03400       13.52200
P         12.69900        7.42800       14.07100
P         15.56300        7.39400       13.26800
C         13.31400       11.28000       13.36300
C         14.79000       11.23800       12.88900
C         15.46700       12.34800       13.74400
C         15.56600       11.84700       15.18400
C         14.10500       11.88000       15.66900
C         13.33600       12.39900       14.44800
C         14.33100       13.40200       13.85000
C         12.20000        7.29800       15.84300
C         13.36200        6.79800       16.74300
C         12.93200        7.19700       18.18000
C         11.69000        8.01600       18.05500
C         11.67700        8.52600       16.59600
C         11.10400        7.42600       13.14800
C         10.18700        8.64600       13.37900
C          9.12400        8.36900       12.29000
C          9.94400        7.91200       11.07800
C         11.28500        7.40500       11.62100
C         13.39400        5.75300       13.70900
C         14.90100        5.77700       13.88600
C         16.05000        7.05700       11.53000
C         14.94200        6.36700       10.70800
C         15.25600        6.70800        9.23100
C         16.46000        7.65100        9.26900
C         16.41200        8.26900       10.66000
C         17.16200        7.53500       14.16900
C         18.11500        8.64400       13.70600
C         19.14900        8.63300       14.83100
C         18.30600        8.50300       16.10900
C         17.00800        7.78900       15.68400
H         15.23800       10.38200       13.04500
H         14.86800       11.47700       11.94800
H         12.99100       10.45100       13.75700
H         12.72800       11.54000       12.63000
H         16.30200       12.69600       13.37000
H         16.12200       12.44700       15.71500
H         15.93400       10.94900       15.22600
H         14.00500       12.49400       16.42100
H         13.80000       10.99500       15.93000
H         12.45500       12.77200       14.65700
H         14.53700       14.13600       14.43500
H         14.06800       13.74300       12.98700
H         11.49800        6.61300       15.88300
H         14.18800        7.23600       16.49900
H         13.48100        5.83700       16.68900
H         13.61700        7.72500       18.62200
H         12.75300        6.39700       18.70600
H         11.69400        8.77900       18.66000
H         10.90600        7.46100       18.23000
H         12.25800        9.29300       16.47500
H         10.77600        8.75100       16.30000
H         10.61200        6.62400       13.41200
H         10.65700        9.48100       13.23000
H          9.79600        8.64700       14.26700
H          8.62700        9.17300       12.08600
H          8.50900        7.66900       12.57100
H         10.09200        8.65600       10.46900
H          9.47900        7.19900       10.61300
H         11.99300        8.00700       11.36400
H         11.48700        6.51500       11.29100
H         12.98000        5.11700       14.30700
H         13.19300        5.52600       12.79000
H         15.13300        5.69600       14.81800
H         15.31600        5.06600       13.38500
H         16.82700        6.46200       11.55200
H         14.92600        5.40400       10.85400
H         14.08100        6.74200       10.95000
H         15.46700        5.90900        8.72200
H         14.49800        7.15900        8.83300
H         17.28900        7.16900        9.13800
H         16.37400        8.34100        8.58900
H         17.26600        8.66100       10.92100
H         15.72500        8.95000       10.70900
H         17.62500        6.69200       14.05400
H         17.66300        9.49900       13.66500
H         18.52500        8.45400       12.84100
H         19.65000        9.46400       14.83200
H         19.76500        7.87800       14.73800
H         18.77400        8.00500       16.80000
H         18.10600        9.38800       16.44800
H         16.91800        6.95100       16.16200
H         16.24600        8.35700       15.86300
B         14.23400        0.61600       13.71300
C         12.94400        1.58600       13.99200
C         12.68100        2.11900       15.25900
C         11.60100        2.96500       15.51300
C         10.73600        3.33500       14.49100
C         11.01200        2.87900       13.21300
C         12.08300        2.01000       12.96700
C         11.33300        3.38300       16.93000
C         10.15300        3.30100       12.05600
C         13.97200       -0.46800       12.49800
C         12.72200       -1.06100       12.28300
C         12.53500       -2.06200       11.33700
C         13.59700       -2.53000       10.56900
C         14.85000       -1.98000       10.79000
C         15.02800       -0.97000       11.73100
C         11.21300       -2.74600       11.14700
C         16.03900       -2.45300       10.01300
C         15.48500        1.62800       13.35900
C         15.74000        2.06600       12.05200
C         16.79800        2.91600       11.74000
C         17.63800        3.39600       12.74300
C         17.37800        3.02300       14.04500
C         16.32900        2.15400       14.35100
C         17.10200        3.21900       10.29900
C         18.24600        3.52100       15.17300
C         14.58600       -0.36100       14.99800
C         15.86400       -0.90300       15.17200
C         16.15400       -1.81100       16.18400
C         15.17900       -2.22400       17.08300
C         13.90100       -1.71400       16.92000
C         13.61100       -0.81100       15.89600
C         17.55800       -2.32500       16.33900
C         12.79100       -2.16800       17.82400
F         12.44600        3.60400       17.61700
F         10.65800        2.47200       17.60800
F         10.61900        4.50800       17.00800
F          9.33500        4.32500       12.36300
F         10.87000        3.70200       11.00300
F          9.36800        2.31900       11.61600
F         11.22800       -4.00900       11.55200
F         10.23600       -2.15900       11.81100
F         10.82900       -2.77300        9.86700
F         15.79000       -3.56500        9.31800
F         16.46900       -1.55000        9.12700
F         17.08700       -2.73300       10.79500
F         17.65100        4.42600       10.13600
F         16.00900        3.19700        9.52500
F         17.94600        2.32800        9.77500
F         17.53000        4.11200       16.12300
F         19.13600        4.42700       14.77300
F         18.91500        2.53900       15.75900
F         18.41200       -1.35300       16.72000
F         18.05800       -2.76600       15.17000
F         17.67600       -3.29400       17.21400
F         12.16700       -1.15400       18.41900
F         13.22200       -2.97000       18.81000
F         11.85100       -2.85300       17.17600
H         13.25200        1.90100       15.96700
H         10.00800        3.87300       14.65900
H         12.22300        1.71000       12.10100
H         12.00400       -0.77300       12.79400
H         13.47200       -3.20600        9.93300
H         15.87500       -0.61800       11.84600
H         15.18300        1.78800       11.36200
H         18.35300        3.95200       12.53100
H         16.17700        1.91600       15.24100
H         16.54100       -0.65300       14.58300
H         15.38200       -2.81700       17.77000
H         12.74500       -0.49400       15.81300
C         13.37300        7.16200       16.82700
C         12.77300        7.58400       18.19500
C         11.43100        8.21100       17.91600
C         11.41800        8.50700       16.39200
C          9.65200        9.10300       12.00600
H         10.69400        9.36400       13.78600
H          9.45000        8.40100       13.95900
H         10.01800        8.19000       10.15000
H          9.25600        7.23400       11.16700
H         11.59100        6.67500       15.92800
H         14.09400        7.76000       16.58100
H         13.69700        6.24700       16.85100
H         13.36100        8.20700       18.64500
H         12.66100        6.79600       18.75500
H         11.33600        9.03600       18.42100
H         10.70400        7.60600       18.14800
H         11.86400        9.34200       16.18900
H         10.51000        8.53300       16.04900
H         10.11800        9.89500       11.69800
H          8.70300        9.28100       12.04800
F         11.25000        2.35300       17.75900
F         10.20000        4.04900       17.05900
F         12.29100        4.17900       17.42200
F         10.76900        4.15500       11.24600
F          9.77800        2.27200       11.29300
F          9.03100        3.90100       12.44400
F         10.93800       -3.60400       12.11500
F         10.20100       -1.89700       11.11200
F         11.15200       -3.43100       10.02200
F         16.17600       -1.82100        8.84600
F         17.18300       -2.27200       10.66600
F         15.97800       -3.75200        9.72500
F         13.22500       -2.51800       19.03400
F         12.14000       -3.22900       17.34300
F         11.86900       -1.22500       18.02000
