83
C:\Users\Javier\OneDrive - Universitat de Barcelona\Tesi\4 - Contribucions\Treballs\3-PhD\chapter_1\cif\pc2p\ZEJPUB.pc2p.pdb
Pd        -0.08900       -1.80300       16.90300
P          0.56400        0.34200       17.44800
P         -0.28100       -1.02000       14.75700
O          0.87600       -2.91300       20.45900
O          2.08000       -3.80100       18.77200
O         -5.14700       -6.50500       13.91600
O         -6.29200       -5.55300       15.48000
C          2.32800       -1.69500       21.77900
H          2.54300       -1.17200       20.97800
H          3.10700       -1.71400       22.37500
H          1.57200       -1.28200       22.24500
C          1.53300       -3.93800       22.53200
H          0.80200       -3.50600       23.02200
H          2.28500       -4.09500       23.14100
H          1.22200       -4.79400       22.17200
C          1.98200       -3.04100       21.39700
H          2.76100       -3.46300       20.93300
C          1.02500       -3.35000       19.18700
C         -0.22100       -3.22800       18.45100
H         -1.04700       -3.17600       19.01200
C         -0.36900       -3.89300       17.21500
H          0.42800       -4.44100       16.96100
C         -1.62800       -4.41600       16.68000
C         -2.87600       -4.16400       17.27300
H         -2.91600       -3.66400       18.07900
C         -4.04300       -4.62800       16.70700
H         -4.88000       -4.44000       17.11700
C         -3.99000       -5.36600       15.54700
C         -2.77400       -5.68100       14.96900
H         -2.74200       -6.22000       14.18800
C         -1.61900       -5.21200       15.52800
H         -0.78800       -5.43300       15.12400
C          1.15500       -3.02800       13.52300
H          1.20900       -3.40300       14.39300
C          1.78300       -3.65800       12.47000
H          2.27100       -4.46000       12.61000
C          1.69100       -3.10700       11.20200
H          2.12800       -3.53100       10.47300
C          0.98000       -1.95800       10.98900
H          0.91000       -1.59500       10.11500
C          0.36500       -1.33400       12.05100
H         -0.12300       -0.53300       11.90600
C          0.45000       -1.85800       13.32700
C         -2.00100       -0.75700       14.23600
C         -2.84800       -1.84900       14.35600
H         -2.51200       -2.66400       14.71000
C         -4.15100       -1.77200       13.97200
H         -4.71000       -2.53700       14.03900
C         -4.66600       -0.59400       13.48800
H         -5.58100       -0.53200       13.24700
C         -3.84000        0.48500       13.36500
H         -4.18200        1.30400       13.02200
C         -2.51700        0.39900       13.73000
H         -1.95400        1.15700       13.63100
C          0.49600        0.64200       14.72700
H          1.47800        0.55000       14.64700
H          0.16900        1.14800       13.94200
C          0.15100        1.40900       16.01500
H         -0.81400        1.63400       16.02700
H          0.66800        2.25100       16.05700
C          0.01900        1.30500       18.89300
C         -0.29200        2.65500       18.83900
H         -0.23200        3.12500       18.01700
C         -0.69100        3.32000       19.99400
H         -0.91700        4.24200       19.95100
C         -0.76000        2.66000       21.18300
H         -1.02200        3.12400       21.96900
C         -0.45300        1.33500       21.24400
H         -0.50000        0.87800       22.07500
C         -0.07000        0.64400       20.09900
H          0.12900       -0.28300       20.14700
C          2.38100        0.45800       17.52900
C          3.04100        1.67900       17.62600
H          2.54100        2.48800       17.64600
C          4.42800        1.72000       17.69700
H          4.87400        2.55700       17.75800
C          5.15000        0.56400       17.68400
H          6.09800        0.59300       17.74700
C          4.50600       -0.64200       17.58300
H          5.01200       -1.44600       17.57400
C          3.14100       -0.69800       17.49200
H          2.71000       -1.54100       17.40600
N         -5.20900       -5.83600       14.94300
