106
C:\Users\Javier\OneDrive - Universitat de Barcelona\Tesi\4 - Contribucions\Treballs\3-PhD\chapter_1\cif\pc2p\ZIPVEZ.pc2p.pdb
Ru         1.73800        2.99800       10.49000
N          2.34400        4.19800        9.37300
O          2.63900        5.04000        8.66200
C          0.17100        4.40600       11.27000
C          0.85700        3.85900       12.36300
C          0.59800        2.45000       12.38800
C         -0.26400        2.15300       11.30900
C         -0.51200        3.34900       10.59600
C          0.07500        5.85500       10.90000
C          1.51400        4.65500       13.46100
C          0.94800        1.52400       13.51100
C         -1.00900        0.86700       11.11300
C         -1.49600        3.54600        9.48400
P          3.92800        2.35500       11.27900
P          2.20400        1.34000        8.82900
C          4.31300        1.97000       13.01000
C          4.78200        2.95300       13.85400
C          5.10200        2.61800       15.15600
C          4.93000        1.37300       15.63800
C          4.48000        0.38500       14.81900
C          4.15600        0.67800       13.48600
C          5.07500        3.68900       10.82000
C          4.75000        5.00300       11.16300
C          5.61700        6.02900       10.82500
C          6.74900        5.76200       10.12500
C          7.06400        4.48400        9.75500
C          6.24800        3.42800       10.09500
C          1.37100       -0.25000        8.85600
C          0.74600       -0.75900        7.73000
C          0.13600       -2.00500        7.76900
C          0.19700       -2.74300        8.87500
C          0.77300       -2.27200       10.02600
C          1.37100       -1.02200        9.99800
C          1.95300        2.01300        7.16900
C          0.86100        2.74200        6.87600
C          0.71400        3.25900        5.57600
C          1.57100        3.01200        4.63800
C          2.65600        2.27300        4.89800
C          2.89300        1.78500        6.16500
C          4.43800        0.86700       10.36300
C          3.99900        0.96300        8.93100
H         -0.00300        5.93700        9.94600
H          0.86400        6.31500       11.19600
H         -0.69700        6.24100       11.32000
H          1.88800        5.45800       13.09300
H          2.21300        4.13100       13.86200
H          0.86200        4.88100       14.12700
H          1.74400        1.83700       13.94800
H          1.09900        0.64200       13.16500
H          0.22600        1.50000       14.14400
H         -0.58700        0.17200       11.62200
H         -1.00100        0.63200       10.18100
H         -1.91600        0.97400       11.40900
H         -1.56900        2.73600        8.97200
H         -1.19500        4.25700        8.91100
H         -2.35300        3.77100        9.85200
H          4.88100        3.82800       13.55200
H          5.44700        3.27300       15.71800
H          5.11900        1.18900       16.52800
H          4.38800       -0.48100       15.14200
H          3.83800        0.00900       12.92700
H          3.95900        5.18700       11.61300
H          5.42300        6.90300       11.08000
H          7.31800        6.45800        9.89600
H          7.84000        4.32600        9.26800
H          6.47200        2.55900        9.85200
H          0.73500       -0.26400        6.94500
H         -0.31500       -2.32400        7.01900
H         -0.16100       -3.60100        8.86700
H          0.76300       -2.77800       10.80600
H          1.78200       -0.69800       10.76700
H          0.21300        2.90200        7.52300
H         -0.02100        3.79400        5.38200
H          1.43300        3.34800        3.78100
H          3.25700        2.08600        4.21500
H          3.67100        1.30900        6.34700
H          5.40300        0.77700       10.40200
H          4.04300        0.08200       10.77300
H          4.18000        0.12400        8.48000
H          4.50200        1.66100        8.48300
C          2.59500        2.14600       -0.58900
F          2.29400        3.01100       -1.42200
F          3.29200        1.26900       -1.28100
F          1.59700        1.47700       -0.31500
S          3.48700        2.73800        0.80800
O          3.56300        1.62600        1.65900
O          2.59500        3.62900        1.41300
O          4.48100        3.28000        0.33700
C          9.15000        0.09300        7.16300
F         10.12400        0.35000        7.84600
F          9.12500       -1.30700        7.04200
F          9.40400        0.43600        5.88600
S          7.62100        0.52600        7.57800
O          7.38100        0.11500        8.85900
O          8.04700        2.03400        7.60000
O          6.71000        0.24000        6.58200
C          3.09500        2.86700       18.38900
N          2.57100        3.49700       17.17500
O          1.88600        2.89400       16.48700
O          2.91000        4.53600       16.88200
H          2.70200        2.00000       18.51700
H          2.89200        3.42400       19.14400
H          4.04600        2.77800       18.30400
H          3.72500        3.46800       18.79300
H          3.53500        2.04400       18.16500
H          2.38100        2.69100       19.00600
