108
C:\Users\Javier\OneDrive - Universitat de Barcelona\Tesi\4 - Contribucions\Treballs\3-PhD\chapter_1\cif\pc2p\ZIPVAV.pc2p.pdb
Ru         6.02300        3.33600        2.47400
Cl         6.81500        1.59200        1.03200
Cl         6.01000        4.48400        0.37700
C          8.21500        3.70000        2.81800
C          7.74200        2.71500        3.75400
C          6.79800        3.35300        4.60100
C          6.69800        4.72700        4.21400
C          7.59500        4.94100        3.12500
C          9.28800        3.52600        1.80200
C          8.31800        1.35000        3.92900
C          6.27900        2.82900        5.90600
C          6.09400        5.79200        5.06800
C          7.93100        6.24900        2.50800
P          4.54700        1.55300        2.88400
P          3.87400        4.40600        2.57500
C          5.18900       -0.03100        3.55000
C          5.71600       -0.96700        2.66700
C          6.25900       -2.14300        3.12900
C          6.25000       -2.42600        4.47000
C          5.70900       -1.53800        5.35500
C          5.17000       -0.33400        4.90800
C          3.55100        0.96900        1.46800
C          3.69300        1.47000        0.19000
C          2.85800        1.01200       -0.81800
C          1.89900        0.07400       -0.54300
C          1.75400       -0.43100        0.73500
C          2.58000        0.01100        1.73800
C          3.83800        6.20100        2.87000
C          4.56100        7.08500        2.07900
C          4.49000        8.45300        2.29800
C          3.70300        8.93100        3.31200
C          2.97700        8.08400        4.09000
C          3.02800        6.72200        3.87300
C          2.63000        4.27800        1.22800
C          2.76300        5.02300        0.06400
C          1.79200        5.00300       -0.90100
C          0.66000        4.23900       -0.72500
C          0.51000        3.50400        0.41700
C          1.48300        3.51900        1.38800
C          3.28300        2.12900        4.10000
C          3.07600        3.65800        4.03400
H          9.00500        3.91000        0.96900
H          9.46500        2.59100        1.68000
H         10.08800        3.96700        2.10100
H          8.47100        0.95400        3.06700
H          7.70400        0.80500        4.42600
H          9.15000        1.41200        4.40500
H          6.32900        1.87100        5.90800
H          5.36500        3.10200        6.01900
H          6.81000        3.17900        6.62500
H          5.26800        5.47400        5.44100
H          5.92600        6.57300        4.53500
H          6.70000        6.01400        5.77800
H          7.23100        6.88000        2.69200
H          8.02200        6.14000        1.55800
H          8.75900        6.57300        2.87300
H          5.70200       -0.79500        1.75400
H          6.63100       -2.74800        2.53000
H          6.61500       -3.22400        4.77900
H          5.69900       -1.73800        6.26300
H          4.79900        0.26500        5.51500
H          4.34400        2.10700        0.00400
H          2.94900        1.34200       -1.68300
H          1.33800       -0.22600       -1.22300
H          1.10000       -1.06700        0.91300
H          2.49000       -0.33000        2.59900
H          5.09800        6.75500        1.39400
H          4.97100        9.03900        1.75800
H          3.66600        9.84600        3.47300
H          2.44300        8.42500        4.77100
H          2.51800        6.15000        4.40000
H          3.52300        5.54400       -0.06200
H          1.89600        5.50300       -1.68900
H         -0.00100        4.22400       -1.38100
H         -0.25500        2.98900        0.53700
H          1.36900        3.01400        2.16000
H          2.44000        1.68500        3.92000
H          3.56400        1.88300        4.99500
H          3.43900        4.06200        4.83900
H          2.12500        3.84900        4.01000
C          3.68200        4.70000        9.25600
F          3.32000        5.63400       10.03200
F          3.66900        3.57300       10.07700
F          4.89600        4.69700        8.96600
S          2.58400        4.37600        7.95000
O          3.16700        3.25600        7.28700
O          2.60000        5.56700        7.22500
O          1.33200        4.08900        8.60500
C         12.24700        2.94300        6.12400
N         11.31000        3.28500        5.18900
O         10.15700        3.58600        5.51300
O         11.69100        3.29300        4.07500
H         11.84900        2.96200        6.99800
H         12.97500        3.56600        6.09000
H         12.57300        2.05900        5.94000
C         11.63300        7.04800        6.52200
N         10.66900        6.88500        5.51300
O          9.66900        7.33400        5.79900
O         11.13100        6.41200        4.58800
H         12.46100        6.65400        6.23900
H         11.33100        6.61800        7.32400
H         11.76400        7.98400        6.68900
H         13.08300        2.76200        5.68800
H         11.95600        2.15800        6.59500
H         12.35800        3.66600        6.74400
H         11.24300        7.51700        7.26300
H         12.37300        7.55300        6.17700
H         11.94000        6.18700        6.81400
