75
C:\Users\Javier\OneDrive - Universitat de Barcelona\Tesi\4 - Contribucions\Treballs\3-PhD\chapter_1\cif\pc2p\ZOVYOY.pc2p.pdb
Ru         0.50800        4.41700        2.15100
Cl         1.21900        5.22100       -0.05800
P          2.60400        3.38500        2.19200
P          1.67600        6.17000        3.15000
C         -1.09800        3.52900        3.45900
C         -0.93400        2.69700        2.31000
C         -1.22900        3.44200        1.15800
C         -1.60400        4.77500        1.57700
C         -1.54400        4.80900        2.99500
C         -1.25900        3.02200        4.86500
C         -0.72400        1.20700        2.37700
C         -1.28100        2.95000       -0.27000
C         -2.12600        5.85800        0.67300
C         -2.07000        5.89200        3.86800
C          3.12800        2.51600        0.63400
C          2.24500        1.34400        0.31500
C          4.57600        2.11100        0.56800
C          3.10900        2.16900        3.51600
C          2.24700        2.19900        4.73000
C          4.56300        2.21200        3.96100
C          1.22000        6.74500        4.86400
C          1.14900        5.58800        5.83800
C          2.10200        7.83500        5.45800
C          1.74900        7.73700        2.15300
C          0.45100        8.41600        2.08100
C          2.92100        8.28900        1.70500
C          3.84900        4.73100        2.30400
C          3.44400        5.70400        3.38700
H         -2.03800        2.49300        4.91400
H         -0.50000        2.52900        5.10600
H         -1.35400        3.77900        5.44300
H         -1.50700        0.78300        2.06900
H          0.00800        0.99200        1.81000
H         -0.53300        0.95900        3.26300
H         -2.17600        3.02600       -0.60600
H         -0.71100        3.49300       -0.81100
H         -1.00500        2.04700       -0.33400
H         -1.62000        6.65800        0.79100
H         -2.05400        5.57900       -0.23300
H         -3.04100        6.04300        0.87000
H         -1.90500        5.66200        4.77000
H         -1.63400        6.69700        3.64700
H         -3.00400        5.97200        3.72000
H          2.99500        3.11500       -0.06800
H          1.32300        1.57900        0.36400
H          2.44300        0.98200       -0.52800
H          2.38500        0.63200        0.98200
H          4.72300        1.36700        1.25100
H          4.79000        1.71800       -0.25800
H          5.14600        2.79000        0.80300
H          2.98500        1.32900        3.13500
H          2.39200        3.03200        5.19900
H          1.32500        2.18300        4.46100
H          2.44400        1.48400        5.27700
H          4.77700        1.52400        4.51700
H          5.14200        2.23500        3.18700
H          4.73100        3.07300        4.42800
H          0.33800        7.10400        4.80600
H          0.60000        4.88300        5.48600
H          2.02300        5.22800        5.99600
H          0.78200        5.86400        6.67300
H          2.98200        7.51500        5.57700
H          2.14400        8.57800        4.81900
H          1.74500        8.15800        6.25800
H          1.94700        8.24600        3.01300
H          0.45600        9.25600        2.47000
H          0.19600        8.44500        1.17400
H         -0.19400        7.84900        2.55200
H          3.66700        7.63800        1.92500
H          2.89300        8.27800        0.74300
H          3.14400        9.09400        2.03700
H          4.69900        4.34800        2.51700
H          3.91000        5.16700        1.46200
H          3.98500        6.49500        3.30900
H          3.56300        5.32200        4.23200
