109
C:\Users\Javier\OneDrive - Universitat de Barcelona\Tesi\4 - Contribucions\Treballs\3-PhD\chapter_1\cif\pc2p\ZUGZEI.pc2p.pdb
Ru         3.47200        6.75600        5.09800
N          1.75800        6.51200        6.14500
N          5.31100        6.68100        4.13200
N          4.65600        5.65100        6.47800
P          3.87500        8.84900        5.90000
P          2.23600        7.84100        3.47600
Cl         3.03400        4.55200        4.16400
C          0.77200        6.27700        6.66300
C         -0.47500        5.99500        7.33200
C         -1.35500        5.11600        6.81600
H         -1.15100        4.66300        6.02900
C         -2.58000        4.88400        7.46500
H         -3.20600        4.31400        7.08100
C         -2.83500        5.45600        8.59100
H         -3.61200        5.25000        9.05900
C         -1.97000        6.35000        9.07700
H         -2.17300        6.79000        9.87000
C         -0.78900        6.63100        8.43700
H         -0.21400        7.27400        8.78500
C          5.66100        7.33300        3.00900
H          5.06100        7.94300        2.64300
C          6.86100        7.13600        2.38100
H          7.06800        7.61300        1.60800
C          7.76300        6.23400        2.89700
H          8.56700        6.05900        2.46400
C          7.43300        5.58900        4.08300
H          8.03500        4.99800        4.47300
C          6.21200        5.82900        4.68300
C          5.83600        5.23800        5.96600
C          6.62600        4.33100        6.65300
H          7.43300        4.04200        6.28900
C          6.21700        3.86100        7.87600
H          6.74200        3.25400        8.34500
C          5.02400        4.29300        8.39800
H          4.73100        3.99200        9.22900
C          4.26600        5.18300        7.66300
H          3.45300        5.46800        8.01100
C          3.60800        9.34100        7.64000
C          2.90000        8.55300        8.54200
H          2.58300        7.72200        8.27000
C          2.66100        8.98200        9.82600
H          2.17900        8.44400       10.41300
C          3.13200       10.21100       10.24700
H          2.97100       10.50100       11.11600
C          3.83900       11.00200        9.37300
H          4.15700       11.83200        9.65400
C          4.08500       10.57500        8.07700
H          4.56900       11.11600        7.49600
C          5.57800        9.43500        5.63000
C          6.58400        8.81400        6.35300
H          6.36300        8.14000        6.95700
C          7.90300        9.17500        6.19400
H          8.56800        8.74700        6.68500
C          8.23200       10.17600        5.30400
H          9.12000       10.43000        5.19700
C          7.25400       10.79100        4.58300
H          7.47700       11.46700        3.98400
C          5.92800       10.42000        4.73300
H          5.26900       10.83800        4.22500
C          2.75500       10.03100        5.04700
H          1.89600       10.04000        5.49400
H          3.13000       10.92400        5.09700
C          0.42800        7.66800        3.65100
C         -0.40900        8.67900        4.06900
H         -0.06400        9.52300        4.25500
C         -1.78800        8.42900        4.21400
H         -2.35200        9.10300        4.51900
C         -2.30600        7.19800        3.90700
H         -3.21900        7.04300        3.98100
C         -1.48600        6.21700        3.50200
H         -1.84200        5.38000        3.30500
C         -0.12800        6.41900        3.37100
H          0.42000        5.72100        3.09400
C          2.41600        7.49200        1.69400
C          3.09000        6.38600        1.22500
H          3.50100        5.80200        1.82000
C          3.15400        6.14400       -0.15600
H          3.60200        5.39400       -0.47200
C          2.56900        6.99600       -1.03100
H          2.61600        6.82100       -1.94300
C          1.90100        8.11900       -0.58700
H          1.51300        8.70900       -1.19400
C          1.82000        8.35800        0.77600
H          1.35800        9.10500        1.08200
C          2.56300        9.64700        3.58900
H          3.36000        9.86800        3.08100
H          1.81600       10.14000        3.21400
F         11.73000        3.24100        2.12500
F          9.84000        3.30300        3.17400
F         11.48700        2.11200        3.93000
F         12.66400        3.90200        3.90200
F         11.03300        5.11600        3.19100
F         10.78600        3.92500        4.92700
P         11.25900        3.61100        3.50500
O          0.65300        0.71700        8.80900
C          0.37900       -1.04600       10.00000
H         -0.33500       -1.07700        9.35900
H          0.00900       -0.99500       10.88500
H          0.91400       -1.83900        9.92300
C          1.08300        0.01700        9.73700
H          1.13100        0.55000       10.54600
H          1.98300       -0.27000        9.51400
C          1.68100        1.52800        8.44000
H          1.79900        2.17100        9.15900
H          2.49800        1.00600        8.41100
C          1.68100        2.30400        7.23500
H          0.90200        2.86400        7.21900
H          1.66800        1.71300        6.48000
H          2.46900        2.85200        7.19800
