65
3
Ru      0.264586    0.288980    2.349558
P       0.566359   -1.877322    1.933390
P       1.922863   -0.008589    0.679108
N       1.606937   -1.682629    0.581360
C      -0.898877   -2.732505    1.259562
C      -1.966095   -1.993458    0.764788
H      -1.987474   -1.070097    0.880939
C      -3.002614   -2.635875    0.098050
H      -3.732110   -2.149141   -0.214201
C      -2.940714   -4.001233   -0.093524
H      -3.635383   -4.427124   -0.541536
C      -1.881737   -4.742069    0.357504
H      -1.843373   -5.656483    0.193083
C      -0.863951   -4.113969    1.064971
H      -0.159547   -4.613228    1.408899
C       1.288157   -3.144081    3.006356
C       0.473347   -3.822287    3.905396
H      -0.432414   -3.616499    3.952159
C       2.342732   -5.107119    4.649066
H       2.692014   -5.774587    5.195128
C       0.996429   -4.795753    4.727506
H       0.448552   -5.243118    5.330889
C       3.172006   -4.443229    3.775669
H       4.073967   -4.661543    3.731924
C       2.654593   -3.441132    2.956577
H       3.214567   -2.974083    2.378837
C       1.758454   -2.737874   -0.499299
H       1.592440   -3.600394   -0.063355
C       0.712458   -2.614401   -1.612541
H      -0.164621   -2.567875   -1.223359
H       0.765719   -3.380290   -2.188772
H       0.878628   -1.818091   -2.122400
C       3.162417   -2.814821   -1.063463
C       4.034283   -3.765024   -0.553604
H       3.752318   -4.332283    0.126710
C       5.324836   -3.872391   -1.048378
H       5.905963   -4.502281   -0.687857
C       5.750433   -3.059977   -2.065078
H       6.620751   -3.135134   -2.386380
C       4.892442   -2.133036   -2.614157
H       5.174959   -1.592619   -3.315590
C       3.585511   -2.002406   -2.107315
H       3.005938   -1.374305   -2.472362
C       1.845885    0.690732   -1.001616
C       2.980702    1.206096   -1.632151
H       3.803257    1.175675   -1.199224
C       2.888393    1.760829   -2.885679
H       3.650400    2.095458   -3.300505
C       1.673531    1.818091   -3.528282
H       1.620457    2.186720   -4.380561
C       0.533348    1.333148   -2.918865
H      -0.285285    1.379674   -3.356318
C       0.617316    0.776626   -1.650252
H      -0.150858    0.459891   -1.232410
C       3.668415    0.261261    1.147936
C       4.005879    1.553251    1.592931
H       3.364109    2.226088    1.595948
C       5.301758    1.828828    2.027367
H       5.520178    2.678822    2.336601
C       6.267828    0.824941    1.995689
H       7.134858    1.009255    2.276262
C       5.947623   -0.429470    1.556728
H       6.599041   -1.093360    1.537118
C       4.656422   -0.719363    1.137377
H       4.448227   -1.578304    0.847753
