65
BIYVIO
Pt     -1.915499   -1.719781   -0.068976
P      -1.939854   -2.522952   -2.155503
P       0.190513   -1.688244   -0.909230
N      -0.275992   -2.220135   -2.451395
C       0.301703   -2.138547   -3.825038
C       0.235175   -0.745275   -4.405064
C      -2.267981   -4.283370   -2.476869
C      -3.598943   -4.685034   -2.551332
C      -3.912577   -6.032805   -2.700257
C      -2.895403   -6.978912   -2.772761
C      -1.564442   -6.578817   -2.698298
C      -1.250655   -5.231046   -2.551332
C      -2.940734   -1.686675   -3.409614
C      -3.571345   -0.494235   -3.062774
C      -4.325737    0.194556   -4.009236
C      -4.448401   -0.310662   -5.302537
C      -3.816825   -1.501533   -5.647418
C      -3.063550   -2.190324   -4.700956
C       1.703633   -2.737905   -3.958287
C       1.866310   -4.040175   -4.424660
C       3.143363   -4.575204   -4.561828
C       4.258857   -3.809532   -4.232624
C       4.096180   -2.508831   -3.766252
C       2.819127   -1.972233   -3.629083
C       1.351681   -2.860287   -0.119532
C       1.528739   -2.675145    1.250192
C       2.347958   -3.541233    1.967386
C       2.989812   -4.592463    1.318776
C       2.812601   -4.776036   -0.048989
C       1.994653   -3.909948   -0.768143
C       1.091093   -0.106692   -0.991531
C       2.462970   -0.037656   -0.768143
C       3.103402    1.198716   -0.725033
C       2.365405    2.366052   -0.907271
C       0.993528    2.298585   -1.130659
C       0.356448    1.062213   -1.173769
H       1.105815   -4.688172   -4.648048
H       3.254340   -5.463258   -4.881235
H       5.130176   -4.175109   -4.326682
H       4.856523   -1.986354   -3.540904
H       2.708151   -1.084179   -3.309677
H      -4.292537   -4.037037   -2.500384
H      -4.820799   -6.305811   -2.749246
H      -3.109878   -7.899915   -2.874657
H      -0.870847   -7.225245   -2.749246
H      -0.342586   -4.958040   -2.500384
H      -3.486847   -0.150624   -2.182937
H      -4.756510    1.007298   -3.774090
H      -4.963672    0.158469   -5.947229
H      -3.901170   -1.846713   -6.529215
H      -2.632778   -3.003066   -4.936102
H       1.089589   -1.958112    1.693050
H       2.468414   -3.415713    2.902091
H       3.548453   -5.182407    1.808663
H       3.251751   -5.493069   -0.491847
H       1.873080   -4.035468   -1.702847
H       2.964129   -0.834708   -0.644691
H       4.036090    1.245786   -0.574148
H       2.799168    3.211743   -0.879837
H       0.490132    3.095637   -1.254111
H      -0.580557    1.013574   -1.326614
H      -0.289179   -2.700249   -4.403105
H       1.142412   -0.478545   -4.730349
H      -0.411755   -0.735861   -5.167329
H      -0.078190   -0.106692   -3.697667
