65
comp1a
Ni      5.027814    9.165851    2.473270
P       3.383305   10.400100    1.898179
P       3.467213    7.853589    1.860248
C       2.593360   11.442256    3.147395
C       1.447195   11.033256    3.846309
C       0.901361   11.843321    4.833536
C       1.493042   13.055533    5.131798
C       2.616716   13.472648    4.453818
C       3.181580   12.673583    3.467213
C       3.701463   11.477060    0.478379
C       4.730849   11.139293   -0.393606
C       4.968732   11.916897   -1.531933
C       4.189340   13.031728   -1.779206
C       3.173795   13.379775   -0.910330
C       2.929857   12.614073    0.214110
C       2.757716    6.813237    3.162111
C       1.659128    7.199875    3.913258
C       1.218827    6.405860    4.966604
C       1.853759    5.217633    5.260305
C       2.939372    4.812780    4.501904
C       3.404758    5.606615    3.465347
C       3.755960    6.727578    0.470503
C       2.901311    5.657830    0.221986
C       3.113243    4.821797   -0.862243
C       4.200586    5.045954   -1.694432
C       5.054370    6.106504   -1.460217
C       4.844168    6.950832   -0.377439
N       2.368452    9.099884    1.467264
C       0.999975    9.002864    0.858927
C       1.025926    8.257540   -0.462834
C       0.086503    7.266418   -0.692282
C       0.063147    6.619377   -1.921393
C       0.958453    6.930274   -2.889137
C       1.899606    7.926084   -2.666529
C       1.929017    8.590618   -1.470788
C       0.358122   10.369443    0.646890
H       0.977484   10.160074    3.621007
H       0.051902   11.563080    5.171386
H       1.141840   13.651359    5.809778
H       3.018955   14.273515    4.582740
H       3.918586   12.922806    2.986761
H       5.319935   10.363852   -0.194834
H       5.691897   11.662264   -2.045755
H       4.420303   13.510698   -2.555639
H       2.707544   14.122034   -1.040495
H       2.205827   12.818212    0.831153
H       1.228343    8.003267    3.741223
H       0.423865    6.657968    5.453274
H       1.505152    4.654446    5.981812
H       3.382267    4.079178    4.690520
H       4.160794    5.413657    3.051014
H       2.153925    5.561531    0.862243
H       2.465336    4.174755   -1.077804
H       4.325150    4.438044   -2.375314
H       5.856253    6.272051   -2.045755
H       5.406438    7.691288   -0.279815
H       0.449816    8.524435    1.432236
H      -0.553619    7.047492    0.047672
H      -0.544969    5.951055   -2.051973
H       0.977484    6.636328   -3.689406
H       2.430734    8.147535   -3.308029
H       2.473986    9.249382   -1.370055
H       0.873680   10.836330   -0.018654
H      -0.588220   10.203354    0.327487
H       0.406564   10.939121    1.401145
