65
1
Ru      0.160115    1.238691    3.169710
P      -0.370838   -0.908711    2.771757
P      -0.245407    0.959366    0.965182
N      -0.631515   -0.716404    1.069655
C      -1.233582   -1.705981    0.116312
H      -1.810562   -2.286702    0.656332
C      -2.139953   -1.061942   -0.936727
H      -2.784557   -0.497503   -0.502634
H      -2.595866   -1.749400   -1.428976
H      -1.608783   -0.535494   -1.539057
C      -0.205052   -2.637668   -0.569098
C      -0.726406   -3.775592   -1.231661
H      -1.638231   -3.956502   -1.217122
C       0.155970   -4.618632   -1.900455
H      -0.185419   -5.360363   -2.344933
C       1.514982   -4.396113   -1.931610
H       2.083237   -4.956934   -2.407243
C       2.004707   -3.312462   -1.233738
H       2.920895   -3.155070   -1.210891
C       1.148507   -2.453140   -0.564944
H       1.504075   -1.729500   -0.101773
C      -1.902181   -1.582962    3.574517
C      -3.139035   -1.087269    3.306584
H      -3.240470   -0.484839    2.604558
C      -4.260274   -1.449089    4.050150
H      -5.091388   -1.076414    3.861143
C      -4.116302   -2.380776    5.080342
H      -4.853615   -2.623195    5.593361
C      -2.928529   -2.918078    5.329582
H      -2.847818   -3.544027    6.014992
C      -1.823650   -2.576158    4.606786
H      -1.011079   -2.992251    4.783331
C       0.759127   -2.308412    3.109269
C       0.539896   -3.565736    2.540171
H      -0.150517   -3.697800    1.931610
C       1.383008   -4.625869    2.909877
H       1.270665   -5.459864    2.515247
C       2.371182   -4.441340    3.842450
H       2.925257   -5.148699    4.081305
C       2.539150   -3.202107    4.421933
H       3.196842   -3.071852    5.065803
C       1.738576   -2.169111    4.048073
H       1.861825   -1.338734    4.448934
C      -1.648048    1.924882    0.209777
C      -1.446268    2.795060   -0.797568
H      -0.593341    2.887324   -1.156889
C      -2.478070    3.554882   -1.312664
H      -2.318828    4.173594   -1.989766
C      -3.733466    3.384826   -0.814184
H      -4.445693    3.842528   -1.198429
C      -3.964694    2.539976    0.257548
H      -4.816531    2.454949    0.618946
C      -2.902353    1.827191    0.778875
H      -3.033237    1.277225    1.516210
C       1.003444    1.277225   -0.342705
C       1.019805    0.720022   -1.617983
H       0.398105    0.066937   -1.842299
C       1.962169    1.134306   -2.567172
H       1.963260    0.734495   -3.406280
C       2.859815    2.084083   -2.305470
H       3.469517    2.359066   -2.951417
C       2.855453    2.632240   -1.082117
H       3.473880    3.299798   -0.895187
C       1.933811    2.234239   -0.041540
H       1.970895    2.615959    0.805876
