73
r-bulkyp-rh
Rh      5.482427    5.659195   23.110972
P       5.230713    5.348515   25.429045
P       6.614258    7.349067   24.158436
C       6.219069    4.014361   26.279617
C       7.676939    4.158823   25.802202
H       7.707715    4.086184   24.815117
H       8.018052    5.052945   26.053998
C       6.085835    6.932505   25.859581
H       5.467176    7.605939   26.239076
H       6.852626    6.794960   26.470734
C       8.081046    1.697860   26.030971
H       8.658567    1.006887   26.440619
H       8.121787    1.591621   25.045950
C       1.308119    7.389687   26.934798
H       1.784040    8.257023   26.883681
H       0.379431    7.562804   27.229761
C       6.277428    9.179324   23.940168
C       5.732379    2.608825   25.871207
H       5.756086    2.520906   24.885323
H       4.797349    2.479743   26.170033
C       8.574344    3.079603   26.417254
H       9.513789    3.202583   26.098552
C       2.756078    6.495718   25.120018
H       3.225382    7.366675   25.080040
H       2.771351    6.096781   24.214466
C       2.735157    4.213209   26.199736
H       2.753623    3.765698   25.317210
H       3.174346    3.618958   26.857954
C       6.638592    1.526205   26.512512
H       6.307191    0.619235   26.252803
C       2.006222    6.475324   27.936134
H       1.987074    6.902219   28.838686
C       3.494923    5.550763   26.119479
C       7.098856    3.047311   28.434926
H       7.072011    3.126307   29.431724
C       1.300411    6.718361   25.556181
H       0.842724    7.316045   24.897549
C       3.459688    6.220390   27.531099
H       3.892457    5.627073   28.195056
H       3.956949    7.076067   27.509197
C       0.576982    5.380807   25.618436
H       0.579756    4.958279   24.721922
H      -0.363476    5.521140   25.891197
C       1.255265    5.115676   27.996139
H       1.690997    4.519742   28.654057
H       0.318364    5.261991   28.280713
C       6.912769    9.971319   25.067139
H       6.582832    9.637253   25.928212
H       6.677726   10.919027   24.974768
H       7.886447    9.871656   25.030048
C       8.430098    7.229928   24.107057
H       8.699474    6.296989   24.243381
H       8.814364    7.787809   24.813730
H       8.752657    7.537906   23.234245
C       1.278389    4.468143   26.623522
H       0.793096    3.595504   26.663800
C       6.584638    1.668968   28.024266
H       7.142064    0.966676   28.445202
H       5.653198    1.552718   28.337530
C       6.863219    9.604214   22.592678
H       7.839221    9.515989   22.618630
H       6.623848   10.536150   22.410787
H       6.502814    9.029558   21.884842
C       8.529198    3.222366   27.954885
H       9.109373    2.537970   28.374696
H       8.864982    4.116249   28.220633
C       6.172823    4.128231   27.812373
H       5.243959    3.997161   28.130100
H       6.472347    5.028658   28.091472
C       4.774413    9.424060   23.934542
H       4.347469    8.810876   23.299276
H       4.595284   10.349080   23.664744
H       4.414614    9.268533   24.831319
