64
MUDCIZ
Rh     -0.611038   19.376930    8.553999
P       0.207125   17.322732    9.131064
P      -1.059018   17.916681    6.776888
C       2.871442   17.945162    9.815268
C       2.883017   18.375345   11.146239
H       2.377733   17.922318   11.782251
C       3.643742   19.478097   11.527846
H       3.646613   19.749854   12.417229
C       4.395602   20.172027   10.595029
H       4.891467   20.915799   10.850468
C       4.404168   19.746888    9.275433
H       4.911459   20.203772    8.643558
C       3.654845   18.641465    8.894860
H       3.675547   18.358435    8.008580
C       1.999561   16.794348    9.361269
H       2.337815   16.474529    8.498775
C       1.944783   15.583012   10.340624
H       2.469960   14.851701    9.980734
H       2.330226   15.839638   11.193811
C       0.502968   15.120194   10.551594
H       0.431248   14.623259   11.382029
H       0.228775   14.543156    9.822507
C      -0.389486   16.363572   10.604336
H      -0.148297   16.869111   11.407883
C      -1.889228   16.143437   10.631224
C      -2.718067   17.174096   11.074882
H      -2.344103   17.975720   11.362380
C      -4.102418   17.012703   11.092462
H      -4.646525   17.708710   11.380995
C      -4.670877   15.819761   10.681899
H      -5.593682   15.712067   10.699479
C      -3.856576   14.789695   10.244446
H      -4.233619   13.985401    9.971427
C      -2.473871   14.954648   10.210319
H      -1.936135   14.261311    9.903172
C      -0.433056   16.414304    7.656964
H      -1.141733   15.792170    7.881378
H       0.269017   15.958310    7.165735
C       0.126171   18.148980    5.338364
C       1.521308   18.262608    5.974376
H       1.511878   18.948824    6.646584
H       2.164685   18.486006    5.298031
H       1.759268   17.423899    6.376666
C      -0.144592   19.468307    4.601004
H      -1.003665   19.423509    4.172859
H       0.536118   19.610416    3.939138
H      -0.137043   20.194871    5.228742
C       0.130559   16.989859    4.345565
H       0.167662   16.160051    4.825418
H       0.896717   17.061952    3.771603
H      -0.668674   17.017450    3.816072
C      -2.795566   17.477894    6.239122
C      -3.372109   18.567593    5.329056
H      -3.199011   19.429442    5.712732
H      -4.319439   18.441504    5.239084
H      -2.958525   18.512707    4.463460
C      -2.880351   16.119702    5.524514
H      -2.379053   16.157084    4.705454
H      -3.797201   15.916775    5.328022
H      -2.515032   15.436156    6.091237
C      -3.651875   17.385924    7.518385
H      -3.288572   16.714839    8.099587
H      -4.553523   17.153922    7.283630
H      -3.647665   18.233830    7.968247
