61
9
Pt    -15.584351   16.848107   12.161770
P     -15.914212   15.073269   10.873375
N     -14.270718   14.599378   10.953850
P     -13.604802   15.974886   11.733070
C     -13.457682   13.567631   10.317450
H     -12.650453   13.466935   10.863200
C     -12.995025   14.002948    8.922550
O     -13.637711   14.670640    8.182550
O     -11.755145   13.580024    8.665400
C     -11.211186   13.982808    7.379650
H     -10.320718   13.637344    7.285300
H     -11.188924   14.941745    7.327850
H     -11.765792   13.637344    6.676650
C     -14.125533   12.204361   10.269350
H     -14.404288   11.953396   11.153650
H     -13.504141   11.555259    9.934500
H     -14.892109   12.243091    9.692150
C     -16.459139   15.329037    9.163050
C     -16.690468   14.277151    8.288000
H     -16.598517   13.401870    8.585850
C     -17.053430   14.514174    6.989300
H     -17.214102   13.795359    6.421350
C     -17.182161   15.787591    6.519400
H     -17.418328   15.944058    5.633250
C     -16.953736   16.841027    7.385200
H     -17.049558   17.711661    7.072550
C     -16.588838   16.633438    8.700550
H     -16.432038   17.353802    9.266650
C     -16.990517   13.778318   11.562500
C     -16.583999   13.028520   12.650300
H     -15.722568   13.126117   12.988850
C     -17.461884   12.128452   13.234900
H     -17.184097   11.617226   13.960100
C     -18.721122   11.990576   12.757600
H     -19.303798   11.387949   13.160900
C     -19.149901   12.741923   11.673500
H     -20.015204   12.631932   11.349750
C     -18.321379   13.632696   11.081500
H     -18.619492   14.145471   10.365550
C     -12.595283   16.909191   10.548700
C     -13.178926   17.914602    9.814250
H     -14.053908   18.170215    9.999250
C     -12.477199   18.551311    8.800450
H     -12.876942   19.237593    8.315750
C     -11.216993   18.170215    8.521100
H     -10.755305   18.588491    7.831050
C     -10.600441   17.174099    9.242600
H      -9.722555   16.933977    9.052050
C     -11.281842   16.540488   10.239750
H     -10.870485   15.855755   10.717050
C     -12.463648   15.333685   12.985150
C     -11.368953   16.074188   13.397700
H     -11.215057   16.915387   13.035100
C     -10.505587   15.567609   14.346750
H      -9.761271   16.060245   14.607600
C     -10.743690   14.354609   14.898050
H     -10.168757   14.026185   15.551100
C     -11.823866   13.604811   14.504000
H     -11.959372   12.760513   14.870300
C     -12.711431   14.097447   13.566050
H     -13.465425   13.607909   13.329250
