58
Rh(BiphiPr)2
Rh      1.098427    6.247254   20.289405
P       2.417697    8.164234   20.208126
P       0.187265    7.764988   21.752422
C       4.072685    8.154542   20.963995
C       4.522430    6.891664   21.379496
H       3.959705    6.134892   21.260242
C       5.769267    6.723470   21.959375
H       6.064698    5.859226   22.222564
C       6.578803    7.828132   22.150392
H       7.422081    7.731920   22.577390
C       6.160573    9.065353   21.720776
H       6.735018    9.811335   21.846177
C       4.923997    9.266330   21.108111
C       4.636830   10.633260   20.593801
C       3.604193   11.431467   21.076465
H       3.021807   11.090519   21.744476
C       3.416519   12.715726   20.595167
H       2.686085   13.233192   20.915479
C       4.273730   13.254516   19.659437
H       4.152176   14.144289   19.349599
C       5.311072   12.477689   19.176774
H       5.905924   12.834416   18.527341
C       5.490095   11.182028   19.638947
H       6.205272   10.658703   19.295664
C       2.653001    9.036846   18.633549
C       1.671056    9.867837   18.106490
H       0.893291   10.064481   18.616178
C       1.822991   10.412328   16.831757
H       1.155890   10.993366   16.483715
C       2.933026   10.113000   16.073838
H       3.023236   10.468430   15.197440
C       3.920120    9.290562   16.597255
H       4.695121    9.095044   16.083469
C       3.780021    8.751772   17.864930
H       4.456782    8.182850   18.213359
C       1.318147    9.149450   21.316886
H       1.798918    9.509057   22.105700
H       0.855499    9.882618   20.839732
C       0.446759    7.514551   23.568102
H      -0.166013    6.780742   23.860251
C       1.870982    7.055582   23.837210
H       2.076338    6.280750   23.272016
H       1.960966    6.804175   24.779907
H       2.493904    7.783204   23.631668
C       0.105660    8.757473   24.399559
H       0.660956    9.509327   24.107138
H       0.276224    8.573401   25.346900
H      -0.840762    8.982824   24.276525
C      -1.493209    8.499481   21.569602
H      -1.490875    9.387843   22.027927
C      -2.576139    7.638558   22.220742
H      -3.448356    8.070644   22.106269
H      -2.383102    7.539281   23.175824
H      -2.590450    6.755855   21.795884
C      -1.803049    8.736093   20.094290
H      -1.120125    9.323302   19.708023
H      -2.683054    9.157076   20.009164
H      -1.802825    7.878604   19.619572
