48
Ni1
Ni      4.355641    8.161539   19.138715
P       4.848474    7.301764   17.217224
P       5.809024    6.618817   19.511806
N       6.073071    6.339166   17.871898
H       6.488461    5.678506   17.473410
C       3.518742    6.184839   16.523448
C       2.218635    6.981509   16.335592
H       2.332143    7.624768   15.604930
H       2.007720    7.461434   17.163004
H       1.487677    6.366948   16.118913
C       3.257916    5.090353   17.578827
H       2.526153    4.512275   17.275879
H       3.013190    5.509066   18.430829
H       4.069376    4.553490   17.701175
C       3.936548    5.492275   15.222768
H       3.269991    4.814518   14.984119
H       4.808384    5.063334   15.346931
H       3.998534    6.156294   14.504402
C       5.598109    8.415942   15.930050
C       6.571378    7.633621   15.043378
H       6.072266    6.986699   14.502386
H       7.217004    7.159191   15.606946
H       7.046340    8.255204   14.454011
C       6.372538    9.517603   16.670991
H       7.083371    9.111559   17.209364
H       5.759918   10.010656   17.255723
H       6.767803   10.134301   16.020148
C       4.495232    9.092173   15.104855
H       4.895327    9.764893   14.514480
H       3.856046    9.525235   15.707727
H       4.031540    8.418537   14.564870
C       5.308302    5.094016   20.335590
H       4.352743    4.939689   20.184419
H       5.478161    5.171714   21.297041
H       5.821905    4.342836   19.972779
C       7.397329    7.084699   20.326318
C       7.998679    8.292603   19.624681
H       7.362713    9.038288   19.654311
H       8.191884    8.065920   18.690844
H       8.828654    8.552867   20.075575
C       7.089811    7.434568   21.786837
H       6.734797    6.644767   22.244382
H       6.426475    8.154456   21.817071
H       7.911737    7.728568   22.232289
C       8.370598    5.899387   20.262222
H       9.223919    6.154767   20.670183
H       8.517917    5.647976   19.325765
H       7.989824    5.138132   20.748792
