70
XUMHAP
Rh     12.234344    8.739820   13.189556
P      11.895771    7.004056   11.887287
P      12.485948    6.982659   14.451866
C      10.323044    6.510899   11.019896
H       9.945503    5.716141   11.493271
C      10.770700    6.048988    9.603251
H      10.150454    5.356123    9.265623
H      10.745081    6.816575    8.980206
C      12.150072    5.498772    9.662423
H      12.510084    5.373105    8.746999
H      12.154117    4.625897   10.125356
C      12.988752    6.512937   10.428177
H      13.037293    7.322638    9.843420
C      12.115015    5.703914   13.175494
H      12.874141    5.094600   12.996934
H      11.288470    5.189699   13.362407
C      14.044518    6.411045   15.330047
H      14.315538    5.542925   14.914800
C      13.625178    6.114199   16.764443
H      14.199579    5.407069   17.149409
H      13.716866    6.928656   17.319963
C      12.178388    5.657383   16.747736
H      11.818375    5.617646   17.668033
H      12.104228    4.758356   16.338406
C      11.407126    6.682757   15.920722
H      11.430048    7.529819   16.449788
C       9.238963    7.601143   10.987874
C       9.415598    8.762712   10.309833
H      10.278548    8.946118    9.958283
C       8.432643    9.683136   10.100991
H       8.599840   10.467705    9.592809
C       7.184062    9.441992   10.643981
H       6.482915   10.070326   10.518675
C       6.961583    8.297405   11.361005
H       6.110768    8.144567   11.754324
C       7.976898    7.363395   11.514156
H       7.807004    6.555052   11.984050
C      14.391046    6.144088   10.714291
C      15.414452    7.057040   10.642240
H      15.210849    7.950972   10.386409
C      16.729103    6.731665   10.925917
H      17.408676    7.393963   10.856303
C      17.052709    5.458015   11.305314
H      17.948020    5.227060   11.524598
C      16.058968    4.520608   11.364137
H      16.290886    3.634148   11.604654
C      14.721394    4.806585   11.091251
H      14.052608    4.133419   11.152163
C      15.233771    7.355244   15.206830
C      15.228378    8.593232   15.825351
H      14.458464    8.874793   16.307080
C      16.320549    9.421614   15.753648
H      16.307066   10.257128   16.206139
C      17.428901    9.058199   15.036624
H      18.178590    9.642380   14.987894
C      17.446430    7.859270   14.399656
H      18.210950    7.601143   13.894954
C      16.346168    7.006773   14.478320
H      16.365045    6.174655   14.023740
C       9.956290    6.424630   15.625907
C       9.063676    7.456457   15.547243
H       9.369754    8.348351   15.673592
C       7.696439    7.224143   15.283754
H       7.088329    7.954369   15.228063
C       7.259570    5.950493   15.109719
H       6.341337    5.784069   14.932203
C       8.133308    4.917987   15.182813
H       7.825881    4.028130   15.050547
C       9.446610    5.145546   15.450827
H      10.037192    4.405131   15.516961
