73
r-bulkyp-rh
Rh     10.393487   15.256100   20.428368
P       9.759578   14.596841   22.578051
P      11.184855   16.819016   21.857240
C       7.924689   14.685898   22.998087
C      10.631217   13.112105   23.311614
C      10.489174   16.122026   23.403497
H       9.799703   16.704108   23.809882
H      11.186143   15.899469   24.070604
C       7.203462   13.339846   22.747191
H       7.396916   13.025547   21.828288
H       7.541624   12.658816   23.382120
C      10.545330   13.022029   24.834994
H       9.603221   12.895428   25.110980
H      10.877557   13.861645   25.240216
C       7.656018   15.078496   24.473463
H       8.104555   15.936264   24.682581
H       8.016125   14.383036   25.079252
C       7.322382   15.770217   22.061632
H       7.768353   16.638522   22.231109
H       7.486194   15.520671   21.117977
C      12.420521   10.771811   22.790695
H      12.957037   10.006075   23.115810
H      12.495738   10.809966   21.805748
C      10.943932   10.588259   23.198729
H      10.592084    9.735692   22.811171
C      12.843347   12.015889   24.939628
H      13.380612   11.260724   25.286458
H      13.194216   12.854163   25.333224
C      10.821709   18.671366   21.796860
C      12.950155   12.073674   23.404247
H      13.906535   12.199323   23.142137
C      10.107089   11.764354   22.698062
H       9.160156   11.630089   22.953871
H      10.155593   11.808832   21.710340
C      10.863551   10.530474   24.727735
H       9.923556   10.394475   25.007659
H      11.399098    9.768289   25.061926
C       5.566111   16.312377   23.760527
H       6.015584   17.173017   23.956782
H       4.595406   16.426740   23.917741
C      11.395387   11.835736   25.322911
H      11.331160   11.783525   26.319558
C       5.697143   13.501305   22.925706
H       5.254067   12.627323   22.726189
C      12.130929   13.276963   22.930207
H      12.213358   13.364643   21.947510
H      12.487766   14.102065   23.343342
C       5.814962   15.914680   22.299403
H       5.449988   16.623702   21.694551
C       6.116666   15.217860   24.676731
H       5.936249   15.470211   25.627512
C      13.020626   16.755962   22.104386
H      13.302389   15.824161   22.223009
H      13.261439   17.273308   22.900767
H      13.469515   17.134811   21.320082
C      11.319411   19.357988   23.083220
H      10.898556   18.938078   23.862011
H      11.084357   20.309113   23.057755
H      12.292935   19.263935   23.147463
C       5.409753   13.873508   24.369579
H       5.747475   13.167953   24.976906
H       4.433752   13.964843   24.510366
C       5.127869   14.566929   21.984376
H       4.149456   14.646468   22.115750
H       5.296240   14.311417   21.043083
C      11.531925   19.254315   20.570505
H      12.498942   19.120713   20.656988
H      11.339462   20.213156   20.504425
H      11.211975   18.801824   19.760811
C       9.344019   18.882112   21.654348
H       9.009315   18.351339   20.903196
H       9.164065   19.831384   21.491921
H       8.893908   18.601565   22.479643
