48
cmpnd_2
Ir      8.238194    7.833450    2.209234
P       9.821826    7.330253    0.521516
P       8.318299    9.501339    0.619834
N       9.369582    8.671838   -0.408143
C       9.099324   11.043018    1.126475
H       9.798300   10.853784    1.786760
H       8.426596   11.635401    1.521921
H       9.497905   11.479078    0.344654
C       6.862407   10.090267   -0.397259
C       5.677356   10.297602    0.576842
H       4.900608   10.629995    0.081629
H       5.929143   10.949224    1.264337
H       5.451817    9.443582    1.003125
C       7.202659   11.418194   -1.075684
H       8.029959   11.319463   -1.590852
H       7.323206   12.110954   -0.393631
H       6.471603   11.674893   -1.676108
C       6.495906    9.071697   -1.467502
H       5.697771    9.376116   -1.948204
H       6.313142    8.206158   -1.046661
H       7.240573    8.977903   -2.098763
C      11.658023    7.580865    0.850752
C      11.802873    8.938410    1.543688
H      11.127229    9.019040    2.249323
H      11.677466    9.655853    0.887031
H      12.697251    9.009167    1.939134
C      12.186872    6.470145    1.757737
H      13.139579    6.619887    1.935506
H      12.069242    5.604607    1.316942
H      11.692048    6.476727    2.604861
C      12.508654    7.676304   -0.435353
H      13.374840    8.082745   -0.223118
H      12.041050    8.229196   -1.095638
H      12.649616    6.779501   -0.801775
C       9.573733    5.741184   -0.478888
C       9.273339    4.628820    0.544191
H       8.448956    4.846027    1.030335
H      10.017034    4.559708    1.179081
H       9.161542    3.776445    0.076187
C      10.771422    5.308415   -1.331454
H      10.525468    4.523507   -1.864761
H      11.524838    5.084626   -0.747356
H      11.029042    6.042313   -1.930064
C       8.394515    5.915608   -1.442106
H       8.589917    6.644569   -2.067926
H       7.585686    6.131170   -0.932381
H       8.254526    5.084626   -1.940948
H       9.731222    9.017395   -1.088382
