72
mo_mbmhsa063_0m
Rh      5.688018   13.825037    2.010003
P       7.314019   14.918040    3.264004
N       8.564032   14.314038    2.275003
H       9.419036   14.519039    2.287003
P       7.753033   13.224035    1.266002
C       7.417021   16.783045    3.090004
C       6.727025   17.145046    1.753002
H       7.192032   16.690045    1.005001
H       5.788020   16.830045    1.767002
C       6.758026   18.668050    1.530002
H       6.312029   18.886051    0.663001
C       6.007016   19.357052    2.677004
H       6.001017   20.337055    2.532003
H       5.069011   19.042051    2.701004
C       9.004014   14.971040    5.591007
H       8.907013   15.955043    5.662008
H       9.760022   14.782040    4.980007
C       6.699011   19.032051    4.005005
H       6.218004   19.490052    4.752006
C       6.675010   17.502047    4.234006
H       7.107007   17.289046    5.098007
H       5.737005   17.187046    4.272006
C       8.872029   17.292046    3.031004
H       9.340026   17.069046    3.873005
H       9.350036   16.851045    2.284003
C       8.876030   18.817050    2.820004
H       9.822035   19.142051    2.797004
C       8.200034   19.153051    1.491002
H       8.221035   20.132054    1.340002
H       8.683041   18.714050    0.747001
C       8.146019   19.498052    3.973005
H       8.588016   19.272052    4.829006
H       8.179020   20.480055    3.857005
C       7.717011   14.371039    5.015007
C       6.547999   14.661039    5.985008
H       6.403998   15.638042    6.049008
H       5.716997   14.250038    5.636008
C       6.853992   14.094038    7.381010
H       6.098984   14.307038    8.000011
C       7.020994   12.579034    7.291010
H       7.203989   12.207033    8.190011
H       6.185991   12.169033    6.951009
C       8.174005   12.252033    6.354008
H       8.279006   11.258030    6.290008
C       7.892012   12.826034    4.954007
H       7.068010   12.415033    4.588006
H       8.642020   12.602034    4.348006
C       9.302007   14.382039    6.978009
H      10.144010   14.786040    7.335010
C       8.141996   14.720039    7.918011
H       8.331991   14.372039    8.825012
H       8.035995   15.703042    7.980011
C       9.469009   12.867034    6.892009
H       9.671005   12.499034    7.788010
H      10.223016   12.646034    6.289008
C       8.411047   13.420036   -0.454001
C       8.006048   14.789040   -1.003001
H       8.237055   14.842040   -1.955003
H       8.482048   15.492042   -0.513001
H       7.040042   14.913040   -0.895001
C       7.802049   12.297033   -1.330002
H       8.055056   12.440033   -2.266003
H       6.826043   12.313033   -1.249002
H       8.141049   11.428031   -1.030001
C       9.936055   13.290036   -0.467001
H      10.269062   13.428036   -1.378002
H      10.191055   12.394033   -0.159000
H      10.327054   13.962037    0.130000
C       8.305034   11.558031    1.700002
H       9.282039   11.512031    1.644002
H       7.911035   10.911029    1.078001
H       8.020027   11.348030    2.614003
