61
8
Pd      8.575179    1.357424   12.143643
P       8.256867   -0.425408   10.842489
N       9.897562   -0.898463   10.939564
P      10.558560    0.472435   11.719485
C      10.725503   -1.924393   10.283847
H      11.533131   -2.028038   10.829016
C      11.179129   -1.477328    8.906343
O      10.541731   -0.815237    8.163333
C      12.977191   -1.505173    7.374738
H      13.866066   -1.859422    7.293535
H      13.008142   -0.546070    7.321218
H      12.429744   -1.848593    6.666054
O      12.413301   -1.898869    8.657012
C      10.042645   -3.287247   10.237155
H       9.768922   -3.539399   11.123009
H      10.656830   -3.941603    9.893886
H       9.272738   -3.240839    9.665041
C       7.716481   -0.151600    9.136481
C       7.487250   -1.209707    8.258747
H       7.583005   -2.085275    8.557723
C       7.122608   -0.968384    6.953957
H       6.970755   -1.679977    6.376306
C       6.981394    0.318670    6.509184
H       6.732818    0.478004    5.627021
C       7.205789    1.375230    7.356283
H       7.111969    2.247704    7.048079
C       7.574300    1.140095    8.677682
H       7.725186    1.856328    9.253487
C       7.177740   -1.714010   11.516476
C       7.583005   -2.478198   12.599618
H       8.445765   -2.385381   12.934766
C       6.712507   -3.380064   13.184466
H       6.995902   -3.901383   13.900532
C       5.436744   -3.505366   12.712011
H       4.852543   -4.110220   13.108800
C       5.016003   -2.747365   11.661904
H       4.145505   -2.838635   11.348164
C       5.871993   -1.840859   11.054725
H       5.574089   -1.322634   10.342350
C      11.685952   -0.163976   12.971861
C      12.796321    0.580103   13.373079
H      12.946240    1.423185   13.012463
C      13.669720    0.063425   14.301381
H      14.410611    0.561539   14.563077
C      13.458866   -1.177221   14.845812
H      14.055641   -1.514454   15.474584
C      12.366875   -1.927487   14.465264
H      12.233399   -2.773663   14.828834
C      11.467360   -1.421638   13.541576
H      10.719699   -1.918206   13.300366
C      11.556345    1.403075   10.527088
C      10.947963    2.419414    9.809915
H      10.077465    2.673112   10.015507
C      11.629853    3.061394    8.786568
H      11.214916    3.737407    8.301194
C      12.915289    2.694769    8.494975
H      13.368915    3.117084    7.801055
C      13.536244    1.718650    9.214731
H      14.416414    1.492797    9.015414
C      12.877567    1.062748   10.233464
H      13.310882    0.399111   10.718838
