58
css20
C       5.572330    4.825867    4.663356
C       5.020487    5.602741    5.663736
H       5.017997    6.549788    5.576813
C       4.468868    5.012687    6.795264
H       4.105123    5.556499    7.483025
C       4.450528    3.655007    6.920311
H       4.103835    3.248073    7.705670
C       4.950014    2.863336    5.875707
H       4.889121    1.918139    5.924506
C       5.529383    3.464488    4.776204
H       5.903174    2.924376    4.089968
C       5.155484    5.386326    1.866563
C       5.541898    5.761815    0.550514
C       4.662557    5.676729   -0.506290
H       4.933574    5.915341   -1.384672
C       3.362894    5.232801   -0.257720
H       2.751522    5.169912   -0.982080
C       2.942209    4.883208    0.997330
H       2.047731    4.594655    1.139152
C       3.846316    4.955346    2.073958
H       3.562426    4.711186    2.946241
C       7.232918    6.740307   -0.831108
H       8.163615    7.041808   -0.785359
H       6.658920    7.491285   -1.093403
H       7.154064    6.022623   -1.492945
C      10.325040    5.721122    4.234840
C       9.992531    5.184709    5.494465
C      10.949780    4.935000    6.423171
H      10.704694    4.576158    7.268004
C      12.316538    5.206905    6.139527
H      12.994409    5.058930    6.789164
C      12.624953    5.697076    4.881427
H      13.537900    5.858000    4.675556
C      11.699876    5.961583    3.923746
H      11.958263    6.294529    3.072813
C       8.251541    4.518817    6.990460
H       7.274363    4.463326    7.040784
H       8.582061    5.103322    7.704146
H       8.636324    3.623562    7.095683
C       9.908399    6.494297    1.480745
C      10.253432    5.480661    0.637437
H      10.023247    4.583557    0.852458
C      10.940269    5.761815   -0.536789
H      11.171202    5.049681   -1.120853
C      11.292901    7.043658   -0.872283
H      11.748955    7.221229   -1.685091
C      10.974909    8.070241   -0.009150
H      11.236296    8.963646   -0.201296
C      10.245734    7.766890    1.175751
H       9.990902    8.469776    1.759815
C       7.892918    4.750030    2.801369
H       8.081366    4.006450    3.425081
H       7.905834    4.418933    1.868088
O       6.825973    6.253836    0.449866
O       8.639178    5.064479    5.700336
P       6.319522    5.642140    3.214178
P       9.027968    6.188356    3.054666
Pd      7.305722    7.718983    3.643762
