48
Ag312_0m
Rh      6.283341    6.564936    5.549368
P       4.777363    5.352122    6.843644
P       5.851381    7.685053    7.554185
N       4.895824    6.421133    8.144329
H       4.541287    6.339309    8.946333
C       5.279130    3.663316    7.454566
C       6.813200    3.642656    7.508162
H       7.120352    2.736070    7.720994
H       7.125429    4.262451    8.198702
H       7.174506    3.913137    6.639356
C       4.832363    2.555296    6.504006
H       5.105669    2.778205    5.590730
H       3.856752    2.465589    6.542261
H       5.247822    1.708514    6.771405
C       4.742671    3.408874    8.869434
H       5.079438    2.548500    9.196838
H       3.762829    3.388486    8.849238
H       5.041362    4.126531    9.466762
C       3.015679    5.389228    6.229421
C       2.923448    4.728657    4.841545
H       1.999452    4.774870    4.518801
H       3.199293    3.790809    4.907181
H       3.512369    5.198940    4.215865
C       2.045145    4.715065    7.201536
H       2.195759    5.061661    8.105491
H       2.194067    3.747314    7.192798
H       1.123687    4.906712    6.928699
C       2.637450    6.862601    6.089798
H       3.312677    7.323370    5.549950
H       2.592604    7.274438    6.977247
H       1.763377    6.934638    5.652871
C       7.229506    8.016562    8.744376
C       6.695585    8.632279   10.039623
H       7.417351    8.682570   10.699869
H       5.969588    8.075007   10.391107
H       6.356279    9.533429    9.857084
C       8.224578    8.973438    8.070536
H       7.754965    9.784881    7.785077
H       8.621422    8.534417    7.289893
H       8.931113    9.209939    8.705538
C       7.939425    6.715807    9.053138
H       8.225424    6.293096    8.218121
H       7.329351    6.116400    9.530845
H       8.723806    6.896581    9.612405
C       4.849286    9.200425    7.561759
H       4.256135    9.204502    6.783057
H       5.439052    9.983324    7.528746
H       4.311980    9.233046    8.381240
