59
_bi026_9520-142
Rh      2.496797   13.655264    6.858524
P       2.561969   11.354062    7.259835
P       3.432300   12.708397    5.006083
O       3.083238   10.030751    4.679583
O       1.530435   14.122109    2.970030
C       5.036933   13.188085    4.150898
C       5.979089   13.770182    5.227661
C       5.665563   11.983861    3.483406
C       4.703627   14.268884    3.113939
C       3.558430   10.966442    5.670614
C       0.911804   10.432714    7.184207
C       2.344146   10.676228    3.717130
C       2.339008   12.070592    3.737543
C       1.029928    8.959959    6.787182
C       0.023174   11.184937    6.195217
C       3.722762   10.752951    8.613087
C       3.140038   11.104878   10.012369
C       4.026778    9.265184    8.545726
C       5.011303   11.556879    8.450807
C       1.514620   12.776114    2.831225
C       0.767134   12.063921    1.897349
C       1.621357    9.939016    2.795503
C       0.800257   14.879336    1.993288
C       0.827152   10.671224    1.897349
C       0.258516   10.526117    8.586551
H       0.223108   12.522593    1.267621
H       1.661133    8.989981    2.771007
H       0.306874   10.195873    1.260477
H       5.455494   14.627483    5.603253
H       2.326448   10.357659   10.308352
H       2.921415   11.958843   10.063401
H       4.689076   10.824671    5.950266
H       6.225503   13.126373    5.827791
H       5.208724   11.425115    3.123124
H       3.816972   14.177150    2.439303
H       1.348692    9.056697    6.113567
H       0.317873   11.041498    5.317477
H       4.362897    8.939944    7.695542
H      -0.331278   14.710878    1.908576
H      -0.506023   10.207548    8.603902
H       0.496367   11.441794    8.920297
H       0.974620   15.744976    2.184146
H       1.210104   14.727557    1.112485
H       6.745695   14.060397    4.939844
H       6.075839   11.074856    4.133547
H       1.509407    8.522969    7.471004
H       4.692557    8.956623    9.185660
H       0.674798    9.890647    9.246898
H       6.546240   12.359139    3.021062
H       0.242846    8.656401    6.828007
H       3.470633    8.823191    8.726377
H       5.598809   11.208288    9.114216
H       5.581202   11.358399    7.481210
H       4.771231   12.542608    8.450807
H       4.169647   14.977742    3.449726
H       5.415522   14.325593    2.486252
H      -0.844515   10.841350    6.195217
H      -0.041065   12.108954    6.429962
H       3.844132   10.858029   10.614541
