51
mrv652_0m
C      -0.119705   18.052030   16.465729
H       0.281258   17.812662   17.327881
H      -1.091942   18.124418   16.566140
H       0.242329   18.912171   16.164495
C      -0.596967   17.368752   13.712034
C      -0.005839   18.724662   13.303291
H       0.956665   18.626268   13.145229
H      -0.153767   19.376003   14.021232
H      -0.441837   19.036874   12.483900
C      -2.097268   17.519155   13.977432
H      -2.536185   17.878055   13.178123
H      -2.235463   18.132021   14.729305
H      -2.479739   16.643197   14.194355
C      -0.383445   16.376152   12.579637
H      -0.707524   15.493503   12.854383
H       0.572247   16.322317   12.367907
H      -0.875889   16.673613   11.786214
C       3.671240   15.890117   16.931083
C       2.772675   16.881957   17.884472
H       1.950313   16.419646   18.151947
H       2.543971   17.694043   17.386743
H       3.286530   17.120716   18.683434
C       4.138089   14.792433   17.831669
H       4.805711   15.145249   18.456643
H       4.540025   14.077675   17.294988
H       3.376065   14.435054   18.333726
C       4.764642   16.820822   16.436817
H       5.349735   17.064448   17.184189
H       4.359981   17.630171   16.062352
H       5.290370   16.367940   15.743806
C       3.405164   14.500903   14.175831
C       2.305534   13.781127   13.387428
H       2.688979   13.391813   12.573923
H       1.604823   14.421367   13.145229
H       1.921117   13.069411   13.939864
C       4.054393   15.545817   13.290999
H       4.715202   16.050101   13.811753
H       3.369253   16.158075   12.953063
H       4.499150   15.104188   12.537568
C       4.367766   13.511953   14.736057
H       4.771649   12.999456   14.005651
H       3.894786   12.902128   15.340429
H       5.069451   13.983388   15.231362
N       1.922479   16.827818   14.919740
H       2.380472   17.459846   14.512901
P       0.267049   16.774287   15.243567
P       2.491320   15.361957   15.569696
Rh      0.327028   14.643322   16.077725
H       5.338057   17.059886   17.168608
H       5.279664   16.377064   15.757655
H       4.366793   17.613442   16.069277
