48
cmpnd_3prime
Ru     10.126477    6.085273    3.466783
P      11.715772    6.745882    5.036356
P       9.128325    6.551746    5.591110
N      10.631647    6.795867    6.330438
H      10.762891    7.064012    7.180581
C      12.410299    8.412801    4.846978
H      12.756584    8.723192    5.710500
H      11.710766    9.024715    4.537180
H      13.138563    8.391034    4.192389
C      13.221597    5.742473    5.526611
C      13.900671    5.287286    4.223094
H      14.713275    4.782438    4.437688
H      14.135409    6.072374    3.686352
H      13.285478    4.716328    3.717228
C      14.194393    6.603666    6.354797
H      14.530448    7.339736    5.801415
H      14.946163    6.051412    6.655674
H      13.725135    6.968879    7.134265
C      12.844950    4.528804    6.384301
H      13.656575    4.037500    6.628228
H      12.247278    3.942367    5.875177
H      12.389840    4.832423    7.197734
C       8.186545    8.169487    5.800901
C       9.023417    9.292054    5.173586
H       8.475369   10.100199    5.089532
H       9.331830    9.013428    4.286735
H       9.797605    9.479417    5.744808
C       6.834382    8.062422    5.088503
H       6.979011    7.831524    4.147789
H       6.366321    8.921520    5.146140
H       6.293408    7.365535    5.516662
C       7.987284    8.591457    7.274069
H       7.827854    9.556813    7.317811
H       8.790964    8.368460    7.789541
H       7.217340    8.115310    7.648879
C       8.206025    5.166516    6.503863
C       7.383953    4.407389    5.455938
H       6.771154    5.027526    5.008910
H       6.869097    3.698891    5.895761
H       7.986740    4.010089    4.792772
C       7.263047    5.612673    7.629496
H       7.772353    6.103010    8.307585
H       6.847332    4.825973    8.039986
H       6.566561    6.194918    7.261204
C       9.243463    4.232280    7.160339
H       8.790964    3.437679    7.513364
H       9.692044    4.705042    7.892463
H       9.906431    3.960104    6.492713
