48
Pd1
Pd      0.138138    1.155551   12.917817
N       1.923406    3.310726   12.287389
H       2.529758    3.876828   12.064402
P       0.636230    2.708797   11.372052
P       1.706044    2.507126   13.753316
C       1.262792    3.706001   15.017848
H       1.909112    4.415409   15.025560
H       1.247820    3.276561   15.875093
H       0.393661    4.066636   14.825065
C       3.263863    1.738404   14.352745
C       3.700494    0.619011   13.417744
H       3.949085    0.989374   12.568211
H       2.975703    0.002373   13.298218
H       4.453205    0.158964   13.798170
C       2.994807    1.155219   15.753897
H       3.759400    0.654838   16.044743
H       2.228563    0.578914   15.718296
H       2.828069    1.871981   16.371190
C       4.363737    2.812006   14.408652
H       5.183400    2.415307   14.713250
H       4.100506    3.509075   15.015278
H       4.493363    3.184029   13.533414
C      -0.630588    4.040301   11.108195
C      -0.884571    4.709374   12.472204
H      -1.593824    5.350213   12.386994
H      -0.084649    5.153287   12.763565
H      -1.131428    4.040538   13.115716
C      -0.150224    5.111767   10.121143
H      -0.760558    5.853204   10.132710
H      -0.115143    4.740455    9.236909
H       0.724536    5.411901   10.376903
C      -1.953257    3.395191   10.624951
H      -2.157715    2.635959   11.173742
H      -1.856391    3.112851    9.712442
H      -2.664075    4.038165   10.687927
C       1.361842    2.048977    9.790583
C       2.110655    0.761605   10.146848
H       2.465103    0.365380    9.346153
H       1.506164    0.147101   10.567116
H       2.829628    0.965648   10.748333
C       0.260604    1.690715    8.790936
H      -0.192056    2.491230    8.513327
H      -0.367427    1.096141    9.207348
H       0.649870    1.262223    8.026227
C       2.359983    3.042148    9.177788
H       2.764878    2.650194    8.400227
H       3.041579    3.250462    9.821686
H       1.899188    3.845985    8.928455
