61
far2f
Pd     15.174973   12.463193    2.602593
P      15.524059   14.282354    1.394616
P      15.335481   14.199419    3.984556
N      15.717864   15.303246    2.773204
C      15.741753   16.796410    2.895520
H      15.898529   16.990657    3.842416
C      14.317336   17.358881    2.566531
H      14.138164   17.254157    1.619635
H      13.648427   16.855529    3.055796
C      14.230736   18.757455    2.925044
H      13.367724   19.098654    2.682521
H      14.911590   19.248984    2.458977
H      14.357650   18.853734    3.871940
C      16.861578   17.417999    2.157405
H      17.690249   17.019372    2.435779
H      16.882482   18.360517    2.340879
H      16.740637   17.279493    1.214726
C      16.981026   14.252626    0.347969
C      16.824251   13.815149   -0.957441
H      15.989608   13.551649   -1.269558
C      17.932131   13.776300   -1.790456
H      17.824628   13.539826   -2.682521
C      19.174390   14.078648   -1.320171
H      19.911982   14.034732   -1.885357
C      19.328179   14.448561   -0.008436
H      20.176260   14.644497    0.320553
C      18.262106   14.533016    0.805600
H      18.383047   14.783003    1.693447
C      14.171012   14.872525    0.362731
C      12.872015   14.494167    0.647432
H      12.716733   13.897915    1.343369
C      11.820873   14.968804   -0.061158
H      10.966820   14.639430    0.107554
C      11.992579   15.909633   -1.005945
H      11.260960   16.267722   -1.453032
C      13.281125   16.338664   -1.309627
H      13.415503   16.972077   -1.976039
C      14.354663   15.828556   -0.626343
H      15.211703   16.124149   -0.828798
C      13.870899   14.745843    4.903193
C      14.003785   15.793085    5.820564
H      14.844400   16.134283    6.023018
C      12.889932   16.311639    6.417383
H      12.970560   17.017682    7.016310
C      11.629756   15.782950    6.128463
H      10.863796   16.152863    6.505956
C      11.541663   14.688414    5.259597
H      10.712993   14.298231    5.105647
C      12.654022   14.178305    4.631144
H      12.580861   13.465505    4.038543
C      16.685392   14.164793    5.187894
C      17.932131   14.607337    4.873668
H      18.099358   15.005964    4.049088
C      18.944453   14.457007    5.793148
H      19.794027   14.771179    5.584367
C      18.741391   13.870889    6.991003
H      19.444641   13.774610    7.592040
C      17.475242   13.413143    7.315774
H      17.318467   13.019583    8.142463
C      16.439031   13.548271    6.392076
H      15.589457   13.223964    6.590312
