53
AX1794
C       2.597199    7.182258   12.861017
H       1.664809    7.421462   13.129444
C       3.537087    7.879937   13.835692
C       3.370582    9.236961   14.089785
H       2.672148    9.710769   13.654570
C       4.208773    9.911639   14.970641
H       4.077217   10.839322   15.133521
C       5.233043    9.238494   15.611738
H       5.815099    9.700035   16.204621
C       5.399622    7.884537   15.377190
H       6.095843    7.412262   15.817618
C       4.550626    7.206792   14.496334
H       4.669574    6.276042   14.351697
C       2.690188    5.662698   12.880563
H       2.033614    5.287025   12.257709
H       2.505252    5.336093   13.786177
H       3.590449    5.386694   12.610834
C       0.667833    9.448564   10.443876
C      -0.011420    9.545166   11.809463
H       0.659442    9.439364   12.515712
H      -0.684504    8.836754   11.888949
H      -0.444474   10.419181   11.898070
C      -0.399598    9.473098    9.340200
H      -1.033618    8.738619    9.483534
H       0.032154    9.367296    8.467162
H      -0.877401   10.327180    9.366261
C       1.635091   10.621585   10.253632
H       1.134651   11.464933   10.274481
H       2.089710   10.532650    9.389715
H       2.298515   10.618518   10.974214
C       0.419272    6.550514   10.235389
C      -0.367616    6.220842   11.345580
H      -0.205573    6.640982   12.180830
C      -1.381252    5.283959   11.232216
H      -1.891058    5.041688   11.997101
C      -1.654971    4.698215   10.006054
H      -2.382844    4.092538    9.920053
C      -0.870967    4.995687    8.914105
H      -1.044895    4.577080    8.078856
C       0.168599    5.898836    9.027470
H       0.717991    6.079772    8.274312
C       6.201306    8.847487   11.907191
H       6.019214    8.904222   12.879260
H       6.957632    9.448564   11.688280
C       6.513769    7.432196   11.508461
H       7.150728    7.418396   10.750091
H       6.914005    6.938454   12.266831
N       2.795417    7.686120   11.466763
O       5.009801    9.214267   11.135791
O       5.245488    6.832652   11.120154
P       1.649398    7.888984   10.181834
P       4.206185    7.944952   10.593465
Rh      3.255732    8.017939    8.557333
