49
BEWPEZ
Rh      3.149386    3.350259    5.864640
P       3.880688    3.596691    3.654861
C       4.299115    5.387114    3.854650
H       5.265049    5.552301    3.830822
H       3.845492    5.955154    3.196628
P       3.597282    5.563257    5.536179
C       5.484797    2.740753    3.174633
C       5.247141    1.319809    2.765890
H       6.090875    0.908528    2.522110
H       4.645413    1.297897    2.007057
H       4.852318    0.832677    3.506393
C       6.358363    2.772779    4.411860
H       7.202476    2.332843    4.223069
H       5.909483    2.312616    5.137700
H       6.524237    3.694791    4.666637
C       6.230985    3.443640    2.041883
H       7.038319    2.949765    1.831096
H       6.464864    4.343740    2.318655
H       5.662726    3.484094    1.257389
C       2.638571    3.561631    2.238006
C       1.481512    4.473529    2.687074
H       0.800133    4.495442    1.996060
H       1.816807    5.370258    2.837374
H       1.097485    4.127985    3.508226
C       3.200641    4.095959    0.921963
H       2.520849    4.038650    0.232782
H       3.971951    3.568373    0.659854
H       3.467042    5.023028    1.035605
C       2.070511    2.135630    2.038217
H       1.440579    2.139001    1.301380
H       1.619567    1.850767    2.848372
H       2.796127    1.523764    1.840261
C       4.748332    6.627701    6.528893
C       4.194869    6.833341    7.934750
H       4.807552    7.384526    8.446137
H       4.093447    5.973696    8.370987
H       3.331874    7.273278    7.881595
C       4.906972    7.986278    5.863540
H       5.505153    8.535777    6.393257
H       4.040256    8.417787    5.801221
H       5.275285    7.869973    4.974570
C       6.114710    5.955154    6.605876
H       6.715523    6.502968    7.133760
H       6.474140    5.850648    5.709574
H       6.022083    5.082024    7.020118
C       2.103628    6.555221    5.394310
H       2.344895    7.485661    5.256841
H       1.583280    6.474313    6.208131
H       1.578400    6.243388    4.640976
