58
css20
C       4.323166    9.161564    5.271819
C       2.964461    9.320638    5.023249
H       2.668362    9.540753    4.147917
C       2.045557    9.161564    6.037354
H       1.117342    9.244801    5.848258
C       2.456442    8.880410    7.321378
H       1.812162    8.799023    8.013714
C       3.810604    8.715786    7.614172
H       4.089437    8.479025    8.491030
C       4.748854    8.902606    6.600068
C       6.574431    8.416135    8.077763
H       7.551264    8.342147    8.065563
H       6.185289    7.556025    8.343108
H       6.306857    9.107923    8.716725
C       4.680598    9.845953    2.507050
C       4.428924   11.159240    2.224930
H       4.774481   11.843629    2.786119
C       3.663645   11.490336    1.104078
H       3.477723   12.405938    0.930231
C       3.171147   10.546989    0.251620
H       2.681374   10.791150   -0.524589
C       3.412113    9.222604    0.555089
H       3.044150    8.543764    0.000000
C       4.179389    8.856364    1.651542
H       4.362288    7.938912    1.822338
C       9.071914    9.660983    5.999230
C       9.705069    8.488273    6.359122
H       9.740537    7.755792    5.755235
C      10.298072    8.392089    7.633997
H      10.755285    7.598568    7.884092
C      10.219377    9.431620    8.512379
H      10.597253    9.357632    9.380087
C       9.588414   10.582134    8.126562
H       9.542275   11.303517    8.742650
C       9.016726   10.737509    6.880662
H       8.599342   11.553226    6.630567
C       9.433357   10.619128    3.274109
C      10.770309   10.887334    3.647727
H      11.048871   10.748607    4.544409
C      11.688205   11.359008    2.694621
H      12.594966   11.510683    2.935566
C      11.263627   11.593920    1.419747
H      11.884531   11.932415    0.785359
C       9.971915   11.360857    1.021730
H       9.705087   11.558775    0.131147
C       9.045102   10.829994    1.929086
C       7.336153   10.576585    0.269920
H       6.389990   10.334274    0.202821
H       7.871492    9.953236   -0.265345
H       7.465933   11.488487   -0.067099
C       6.724416   10.711613    4.465110
H       6.698973   11.464441    3.821573
H       6.549784   11.042709    5.381617
O       6.099967    8.771277    6.757139
O       7.749565   10.509995    1.631717
P       5.594106    9.315644    3.980018
P       8.285767    9.727202    4.349823
Pd      7.305722    7.718983    3.643762
