148
C:\Users\Javier\OneDrive - Universitat de Barcelona\Tesi\4 - Contribucions\Treballs\3-PhD\chapter_1\cif\pcp\AJINAK.pcp.pdb
F         11.45500       10.10900        9.81000
F          9.49100        9.50100       10.27100
F          9.90800       11.52700        9.87700
F          8.85600        9.32000       15.72400
F         10.87500        8.97400       16.29400
F          9.97100        7.78800       14.75500
F         15.43600        9.32100       16.62300
F         17.08600        8.71900       15.42700
F         17.23600       10.42500       16.69800
F         15.90800       14.64300       17.96900
F         14.64900       14.79400       19.68400
F         14.93300       16.49100       18.44300
F          9.59000       14.63800       18.96600
F          9.68500       16.39900       17.78100
F          8.86900       14.60600       16.97400
F          9.70900       17.07500       12.10100
F         10.86100       17.93800       10.50600
F         10.07800       15.94800       10.32900
C         11.78700       12.02600       13.63700
C         11.44200       11.77100       12.30400
C         10.65300       10.68700       11.93100
C         10.18100        9.79200       12.87600
C         10.52000       10.01000       14.20700
C         11.28600       11.11100       14.57500
C         10.37300       10.44900       10.48200
C         10.06100        9.03000       15.23900
C         12.94400       14.47500       13.11300
C         14.12900       15.21900       13.02200
C         14.20300       16.42100       12.32700
C         13.08900       16.94700       11.69900
C         11.89900       16.24500       11.79200
C         11.82800       15.03000       12.48300
C         15.52600       17.12100       12.26700
C         10.65600       16.80400       11.17800
C         14.32200       12.29000       13.91500
C         14.80900       11.45300       14.92800
C         15.94300       10.66900       14.75900
C         16.65400       10.68600       13.56900
C         16.18200       11.48200       12.54800
C         15.04200       12.26200       12.70900
C         16.43000        9.79100       15.87500
C         16.94500       11.46800       11.25100
C         12.68500       13.72800       15.56500
C         13.76300       14.12300       16.36400
C         13.57900       14.77000       17.58300
C         12.30600       15.06700       18.04300
C         11.22200       14.69700       17.26700
C         11.40700       14.03200       16.05400
C         14.76200       15.17600       18.40500
C          9.85500       15.08600       17.74000
B         12.91300       13.12900       14.05500
F         16.49700       12.39000       10.39700
F         16.85400       10.26900       10.62500
F         18.25500       11.70900       11.43700
F         16.44100       16.43500       11.59900
F         16.04300       17.34700       13.45900
F         15.45700       18.30200       11.67400
H         11.76300       12.35600       11.63700
H          9.64800        9.05100       12.63100
H         11.49500       11.24400       15.49900
H         14.88800       14.89900       13.44100
H         13.12800       17.77100       11.23400
H         10.97600       14.57200       12.52300
H         14.33500       11.40800       15.75300
H         17.43400       10.14800       13.46400
H         14.74100       12.81400       11.99600
H         14.64600       13.93500       16.07400
H         12.18000       15.50800       18.87500
H         10.64300       13.79200       15.55500
F         16.16400       11.83400       10.20200
F         17.42600       10.25800       10.96900
F         17.97200       12.29600       11.27300
F         16.55400       16.28100       12.25000
F         15.73300       17.91900       13.29600
F         15.65800       17.87000       11.20400
F         17.11800       12.73100       10.74900
F         16.32000       10.76200       10.31400
F         18.16400       10.93800       11.39200
C         17.07600        5.67200       13.82600
C         16.88600        5.97100       12.48000
C         16.62000        4.92900       11.58700
C         16.53300        3.59600       12.00200
C         16.65300        3.30600       13.35500
C         16.93100        4.35100       14.25000
C         15.57000        1.96900       16.96400
C         13.63000        1.98100       15.57600
C         12.74600        2.76200       14.82700
C         11.57500        2.17500       14.37400
C         11.30300        0.84000       14.62800
C         12.20600        0.07700       15.32600
C         13.36900        0.63700       15.81100
C          9.56500        4.91200       16.81600
C         11.91100        5.38400       16.80600
C         13.12000        5.32700       16.09800
C         14.25000        5.92800       16.63900
C         14.19400        6.57900       17.87500
C         13.01000        6.60300       18.56500
C         11.87400        6.01900       18.04800
C         11.93400        5.23600       13.40500
C         13.09400        7.67100       12.22200
C         13.50800        8.21700       13.57900
C         13.93500        8.27300       11.09700
C         12.68400        5.28800       10.53100
C         11.35500        5.91700       10.08700
C         12.63200        3.77100       10.44500
F         16.49100        5.20300       10.33200
O         14.73500        2.63700       16.03500
O         10.84700        4.78600       16.19900
P         13.19900        5.83200       12.21700
P         13.22000        4.48800       14.49100
Rh        14.97600        4.89200       13.16500
H         17.26500        6.40600       14.46100
H         16.90600        6.89500       12.14900
H         16.30300        2.90000       11.34600
H         16.55000        2.37600       13.69500
H         16.25000        2.61300       17.23600
H         15.03700        1.68200       17.72900
H         15.98700        1.20400       16.54500
H         10.96000        2.70500       13.89000
H         10.47900        0.44300       14.33000
H         12.02500       -0.83800       15.48100
H         13.97900        0.12700       16.30600
H          8.93200        4.45800       16.23500
H          9.58900        4.48600       17.69200
H          9.31000        5.84800       16.89600
H         15.06800        5.90800       16.14900
H         14.96300        6.97600       18.22900
H         12.95400        7.03300       19.40200
H         11.06700        6.04900       18.53600
H         11.44500        5.95200       13.84100
H         11.33200        4.59000       13.00800
H         12.14400        7.89800       12.07400
H         12.97100        7.82500       14.28200
H         14.43600        7.99000       13.72500
H         13.39900        9.18300       13.58000
H         13.57900        8.00800       10.23300
H         14.85400        7.97800       11.18200
H         13.90800        9.23400       11.17800
H         13.38400        5.59800        9.91200
H         11.45200        6.88300       10.07600
H         10.63600        5.66200       10.70000
H         11.14800        5.61200        9.20200
H         13.49500        3.39800       10.74100
H         11.93100        3.44900       11.02500
H         12.45300        3.50000        9.53500
H         17.01600        4.15200       15.17400
F         17.16900        4.07400       15.43300
H         16.50100        5.10400       10.66300
