191
C:\Users\Javier\OneDrive - Universitat de Barcelona\Tesi\4 - Contribucions\Treballs\3-PhD\chapter_1\cif\pcp\AJINEO.pcp.pdb
Rh        -2.12400        4.48200        5.36400
P         -0.09100        4.04700        6.25300
P         -0.60200        5.35400        3.98500
C         -3.93600        4.73800        6.87800
C         -3.75900        3.37900        6.65200
H         -3.61900        2.78900        7.38500
C         -3.78400        2.88000        5.35400
H         -3.66200        1.95100        5.20000
C         -3.98700        3.74200        4.28300
H         -4.00500        3.40100        3.39700
C         -4.16600        5.10100        4.50900
H         -4.30500        5.69100        3.77700
C         -4.14100        5.60000        5.80800
H         -4.26300        6.52900        5.96100
F         -3.95600        5.15600        8.12800
C          0.89300        4.71500        4.84800
H          1.52200        5.43100        5.11900
H          1.36700        4.01200        4.33600
C          0.40100        5.05500        7.75900
C          0.15400        6.53200        7.39400
H          0.33200        7.09500        8.17500
H         -0.77600        6.64700        7.11100
H          0.75300        6.79200        6.66300
C         -0.51500        4.71100        8.94200
H         -0.32700        3.80000        9.24700
H         -1.45200        4.77600        8.65900
H         -0.35100        5.34100        9.67500
C          1.86200        4.87300        8.15800
H          2.10200        5.54100        8.83300
H          2.43300        4.98400        7.37000
H          1.98900        3.97400        8.52900
C          0.42300        2.24100        6.38600
C         -0.21600        1.59400        7.62200
H         -1.17900        1.77400        7.62400
H          0.18700        1.96900        8.43300
H         -0.06500        0.62600        7.60000
C          1.94300        2.04800        6.42800
H          2.15100        1.09000        6.40900
H          2.30000        2.44500        7.25000
H          2.35000        2.48500        5.65000
C         -0.10700        1.54500        5.13700
H          0.28500        1.96000        4.34100
H         -1.08300        1.63100        5.10400
H          0.13700        0.59600        5.16500
C         -0.38800        7.16600        3.93500
C          0.77900        7.73400        3.42200
C          0.97800        9.11500        3.50500
H          1.77600        9.50600        3.16900
C          0.00600        9.90700        4.08000
H          0.14700       10.84500        4.14500
C         -1.15300        9.37000        4.55800
H         -1.82100        9.93300        4.93200
C         -1.35600        7.99200        4.49300
H         -2.16000        7.61600        4.83200
O          1.66100        6.86400        2.86500
C          2.91300        7.36200        2.38600
H          2.75300        8.05800        1.71600
H          3.42200        6.62900        1.98100
H          3.42100        7.73800        3.13600
C         -0.58600        4.79200        2.25100
C         -1.57000        5.28700        1.38700
C         -1.63000        4.87000        0.06200
H         -2.29000        5.22600       -0.52200
C         -0.72300        3.93100       -0.40000
H         -0.76300        3.64000       -1.30300
C          0.23700        3.41700        0.44300
H          0.84700        2.76200        0.12200
C          0.31500        3.85300        1.75800
H          0.99100        3.50700        2.32900
O         -2.43900        6.17700        1.94800
C         -3.41500        6.78200        1.09800
H         -2.96900        7.18500        0.32200
H         -3.89500        7.47700        1.59400
H         -4.05000        6.10100        0.79200
C         -4.09000        5.52600        6.13200
C         -3.86100        4.37100        6.86800
H         -3.79100        4.41800        7.81400
C         -3.73500        3.14600        6.22200
H         -3.57900        2.35700        6.72600
C         -3.83800        3.07800        4.83800
H         -3.75200        2.24100        4.39500
C         -4.06600        4.23400        4.10100
H         -4.13600        4.18800        3.15300
C         -4.19300        5.45800        4.74700
H         -4.34800        6.24800        4.24100
F         -4.22200        6.70100        6.70000
B          6.12400        0.61600       13.85500
C          6.82000        1.73700       12.88700
C          8.02500        1.49600       12.22500
H          8.40300        0.62500       12.26700
C          8.69000        2.48300       11.50800
C          8.16000        3.75300       11.39500
H          8.60800        4.42700       10.89500
C          6.96200        4.01900       12.03000
C          6.32000        3.04300       12.77700
H          5.51500        3.26500       13.23000
C          9.97400        2.14200       10.83200
F          9.80700        1.40100        9.76200
F         10.79700        1.45300       11.61400
F         10.66800        3.19800       10.47100
C          6.37700        5.38800       11.91900
F          5.08100        5.42400       12.14800
F          6.56800        5.94300       10.72400
F          6.95000        6.25300       12.77600
C          6.87000        0.86300       15.29800
C          8.19000        0.41800       15.45000
H          8.57900       -0.09400       14.75100
C          8.94900        0.69200       16.57200
C          8.42200        1.41700       17.62700
H          8.94400        1.61300       18.39700
C          7.10500        1.84500       17.51900
C          6.34900        1.59500       16.37800
H          5.46100        1.92800       16.32900
C         10.33900        0.15200       16.62200
F         11.05200        0.50900       15.55000
F         10.35100       -1.18500       16.63000
F         11.02800        0.52000       17.69000
C          6.50000        2.57500       18.67400
F          7.06500        2.29800       19.83500
F          6.44400        3.87600       18.50700
F          5.20600        2.23100       18.88300
C          4.49900        0.74500       13.88000
C          3.73300        0.31300       14.96500
H          4.17600       -0.03100       15.73100
C          2.34400        0.36600       14.95900
C          1.65300        0.83100       13.84900
H          0.70400        0.87500       13.84400
C          2.39100        1.23000       12.74600
C          3.77700        1.18600       12.76000
H          4.25500        1.46400       11.98700
C          1.60000       -0.09200       16.16700
F          0.35400        0.34900       16.20700
F          1.55900       -1.42900       16.26400
F          2.17200        0.32400       17.30000
C          1.69900        1.73500       11.52300
F          0.41600        1.94300       11.66900
F          1.77600        0.76900       10.53400
F          2.24200        2.77600       10.98200
C          6.41500       -0.90800       13.31700
C          6.63700       -1.98400       14.17600
H          6.65200       -1.82800       15.11200
C          6.83800       -3.27900       13.70600
C          6.80400       -3.55600       12.35200
H          6.95000       -4.43800       12.03000
C          6.55300       -2.51500       11.48100
C          6.36300       -1.21800       11.95200
H          6.19400       -0.52300       11.32800
C          7.13500       -4.36500       14.68500
F          6.13400       -4.60900       15.51400
F          8.15700       -3.98500       15.55300
F          7.57300       -5.49200       14.20000
C          6.49400       -2.79100       10.02700
F          5.54400       -3.77500        9.80500
F          7.56000       -3.34600        9.54000
F          6.11600       -1.82500        9.26400
F          5.65200        3.50500       18.32300
F          5.93100        1.79700       19.54300
F          7.46100        3.24300       19.36100
F          2.23800        1.48900       10.39000
F          1.68300        3.12200       11.60000
F          0.41700        1.45300       11.47800
F          8.37700       -4.46000       15.00700
F          6.81300       -5.58100       14.08700
F          6.38200       -4.36100       15.75700
F          7.53300       -2.13600        9.40100
F          5.45000       -2.23500        9.44900
F          6.60200       -3.99100        9.63600
C          2.28600        4.51800       14.83500
C          3.29600        5.44600       15.06200
H          3.58100        6.02000       14.36100
C          3.89100        5.53100       16.31600
H          4.58100        6.16500       16.47100
C          3.47500        4.69000       17.34100
H          3.88100        4.75000       18.19900
C          2.46400        3.76400       17.11400
H          2.18000        3.18900       17.81500
C          1.87000        3.67700       15.86000
H          1.18000        3.04400       15.70500
F          1.71800        4.45600       13.65700
C          3.61900        5.35000       17.70400
C          2.88500        4.16900       17.70200
H          2.67600        3.73800       18.52300
C          2.45800        3.61800       16.49900
H          1.95800        2.81100       16.49700
C          2.76500        4.24800       15.29900
H          2.47200        3.87200       14.47700
C          3.49800        5.42900       15.30100
H          3.70700        5.86000       14.48100
C          3.92600        5.98000       16.50500
H          4.42700        6.78700       16.50500
F          4.02900        5.87400       18.81700
