76
C:\Users\Javier\OneDrive - Universitat de Barcelona\Tesi\4 - Contribucions\Treballs\3-PhD\chapter_1\cif\pcp\AKEGEC.pcp.pdb
Ru         5.79000        7.14100        2.73700
Cl         3.82800        6.40300        1.49800
P          6.63000        7.52500        0.65100
C          8.20200        8.44600        0.43100
C          9.21200        8.20100        1.33300
C         10.47200        8.79100        1.18600
C         10.71200        9.64600        0.19500
C          9.70700        9.94700       -0.71200
C          8.44500        9.34700       -0.61700
C          5.58700        8.18100       -0.70000
C          5.11400        9.47100       -0.56900
C          4.28900       10.03900       -1.51900
C          3.91300        9.28700       -2.63100
C          4.36200        7.99100       -2.72800
C          5.19900        7.43300       -1.79700
C          7.04000        5.76000        0.25900
P          6.84300        5.23500        2.01500
C          8.48100        4.70300        2.63500
C          8.52300        4.04700        3.87500
C          9.71100        3.62800        4.40900
C         10.90400        3.83100        3.74800
C         10.89000        4.44400        2.50200
C          9.68500        4.88200        1.95800
C          6.05700        3.58700        1.99900
C          4.91900        3.36600        2.77100
C          4.41700        2.06400        2.86000
C          5.03200        1.03100        2.18400
C          6.14000        1.26100        1.41600
C          6.66000        2.54600        1.31000
C          4.65400        7.55300        4.59500
C          3.26100        6.99800        4.85400
C          5.86000        7.06000        4.94900
C          6.03800        5.84400        5.83300
C          6.88000        7.91700        4.46500
C          8.32000        7.82700        4.84100
C          6.21600        9.00400        3.80400
C          6.90700       10.23000        3.28700
C          4.83700        8.79700        3.82100
C          3.78500        9.73100        3.28100
H          9.06300        7.55100        2.07400
H         11.11300        8.70500        1.93800
H         11.66800        9.93000        0.04400
H          9.91400       10.59000       -1.38800
H          7.71700        9.58800       -1.30400
H          5.34200        9.95100        0.21800
H          4.04200       10.97500       -1.42000
H          3.29800        9.62700       -3.29400
H          4.07800        7.48900       -3.48900
H          5.53100        6.56000       -1.90300
H          7.94900        5.65400       -0.06100
H          6.46000        5.34200       -0.34000
H          7.70600        3.84600        4.32200
H          9.71000        3.18800        5.24000
H         11.72800        3.55900        4.13500
H         11.69600        4.55700        2.00700
H          9.67700        5.36200        1.12700
H          4.49300        4.08600        3.24200
H          3.64000        1.87800        3.38200
H          4.68900        0.13200        2.25800
H          6.59000        0.56200        0.88500
H          7.43700        2.69900        0.74600
H          3.06100        7.11300        5.75800
H          3.27200        6.07700        4.62200
H          2.60400        7.48600        4.31600
H          5.63000        6.03900        6.64900
H          7.03200        5.87500        6.01700
H          5.86600        5.04100        5.40200
H          8.78700        7.06200        4.50200
H          8.55400        7.99300        5.72100
H          8.81100        8.53800        4.30100
H          6.46500       10.59700        2.53200
H          7.81100       10.04800        3.06300
H          6.88700       10.89900        3.96200
H          4.01200       10.58600        3.58300
H          2.97100        9.44500        3.70300
H          3.76000        9.69400        2.32600
