78
C:\Users\Javier\OneDrive - Universitat de Barcelona\Tesi\4 - Contribucions\Treballs\3-PhD\chapter_1\cif\pcp\AKEHAZ.pcp.pdb
Ru         4.86400       27.86100        9.02700
P          6.85000       28.87300        9.47500
C          7.46400       30.23000        8.40800
C          6.85000       31.47300        8.54600
C          7.17400       32.53400        7.71700
C          8.12700       32.36600        6.72500
C          8.75600       31.15500        6.58500
C          8.44000       30.09800        7.42100
C          7.36400       29.48900       11.12600
C          6.54000       29.29300       12.21900
C          6.95100       29.69500       13.48900
C          8.17500       30.31000       13.65400
C          8.99600       30.51500       12.57300
C          8.59400       30.11500       11.30600
C          7.90200       27.40300        9.10100
P          6.54900       26.66400        8.07500
C          7.11700       26.91800        6.35300
C          6.59200       27.97100        5.60100
C          6.99300       28.16200        4.28500
C          7.92000       27.32200        3.71600
C          8.48400       26.29700        4.46000
C          8.07700       26.08500        5.76800
C          6.63500       24.84800        8.19500
C          7.53000       24.19000        9.03000
C          7.53700       22.80700        9.09600
C          6.64200       22.06400        8.34500
C          5.74500       22.70800        7.52600
C          5.73600       24.09300        7.44800
C          5.25100       26.59100       10.54400
C          5.32800       25.76100       11.40900
C          2.79500       28.09400        9.84700
C          2.37200       27.78800       11.25200
C          3.21900       29.35700        9.34700
C          3.30300       30.64300       10.11400
C          3.43200       29.22400        7.92500
C          3.70900       30.34900        6.97900
C          3.14700       27.87100        7.57300
C          3.07400       27.31700        6.18400
C          2.77700       27.15600        8.75700
C          2.34900       25.72200        8.84200
H          6.17000       31.59600        9.23400
H          6.74900       33.29600        7.82700
H          8.29700       33.07100        6.13800
H          9.31900       31.05900        5.96500
H          8.81100       29.34800        7.31800
H          5.74600       28.87600       12.08100
H          6.37700       29.56400       14.21400
H          8.44500       30.54100       14.45200
H          9.79700       30.86300       12.70900
H          9.13300       30.24200       10.54400
H          7.99000       26.90800        9.88400
H          8.78100       27.56400        8.72500
H          5.96200       28.55400        5.98600
H          6.60000       28.81200        3.82100
H          8.16700       27.42300        2.86900
H          9.11300       25.79300        4.13500
H          8.43200       25.40700        6.21400
H          8.06100       24.68000        9.52600
H          8.10400       22.37200        9.66700
H          6.65600       21.13800        8.39000
H          5.15600       22.21800        7.08000
H          5.10400       24.54500        6.88500
H          5.33400       25.12400       12.03800
H          1.39600       27.79200       11.33400
H          2.71300       28.49700       11.81100
H          2.67400       26.94400       11.46400
H          3.54600       30.49300       10.98800
H          2.50800       31.03300       10.14300
H          3.99300       31.23600        9.74300
H          2.96900       30.88200        6.90700
H          3.95600       30.08500        6.16000
H          4.38400       30.89800        7.27500
H          2.16400       27.47100        5.78100
H          3.24800       26.35200        6.18100
H          3.61000       27.75100        5.64000
H          1.53800       25.61300        8.50900
H          2.44200       25.45200        9.68900
H          2.84900       25.20100        8.29200
