87
C:\Users\Javier\OneDrive - Universitat de Barcelona\Tesi\4 - Contribucions\Treballs\3-PhD\chapter_1\cif\pcp\AVEDIO.pcp.pdb
Ru        16.86800        3.59600        1.71200
Cl        15.86400        5.28100        3.11500
P         18.41800        4.99600        0.69800
C         15.66900        3.59600        0.31800
H         15.84500        3.59600       -0.56400
C         14.27000        3.59600        0.56300
H         14.10400        3.59600        1.52100
C         13.32800        3.59600       -0.37300
C         13.67500        3.59600       -1.83100
C         13.81400        2.40100       -2.49900
H         13.73600        1.59800       -2.03500
C         14.06700        2.39100       -3.84600
H         14.10200        1.58900       -4.31700
C         14.27000        3.59600       -4.48700
H         14.55000        3.59600       -5.37500
C         11.88400        3.59600       -0.04900
C         10.92200        3.59600       -1.05100
H         11.17900        3.59600       -1.94400
C          9.56700        3.59600       -0.70700
H          8.93300        3.59600       -1.38800
C          9.15000        3.59600        0.56100
H          8.24100        3.59600        0.76000
C         10.07900        3.59600        1.55900
H          9.80200        3.59600        2.44800
C         11.41500        3.59600        1.26100
H         12.03000        3.59600        1.95800
C         19.52100        3.59600        0.15500
H         19.67000        3.59600       -0.80300
H         20.37100        3.59600        0.62100
C         18.01600        6.10800       -0.80100
C         19.18600        7.03500       -1.20300
H         19.97500        6.50900       -1.35500
H         19.35100        7.66600       -0.49700
H         18.95800        7.50900       -2.00700
C         16.76300        6.92000       -0.46600
H         16.46200        7.38400       -1.25100
H         16.97100        7.55800        0.22100
H         16.07100        6.33100       -0.15700
C         17.71300        5.27300       -2.04300
H         16.97300        4.68900       -1.86600
H         18.48500        4.75000       -2.27300
H         17.49300        5.85600       -2.77400
C         19.45200        6.04000        1.91800
C         20.89400        6.27700        1.43500
H         21.42600        6.60100        2.16400
H         20.89100        6.92600        0.72600
H         21.26200        5.45200        1.11000
C         18.75500        7.37100        2.19700
H         17.86100        7.20500        2.50100
H         18.72800        7.89300        1.39100
H         19.23900        7.85100        2.87200
C         19.53600        5.29900        3.25000
H         20.07100        4.51000        3.14500
H         18.65200        5.05000        3.53400
H         19.93500        5.87000        3.91000
Cl        15.86400        1.91200        3.11500
P         18.41800        2.19600        0.69800
C         14.06700        4.80200       -3.84600
C         13.81400        4.79100       -2.49900
H         13.73600        5.59400       -2.03500
H         14.10200        5.60300       -4.31700
C         18.01600        1.08500       -0.80100
C         19.18600        0.15700       -1.20300
H         19.97500        0.68300       -1.35500
H         19.35100       -0.47300       -0.49700
H         18.95800       -0.31600       -2.00700
C         16.76300        0.27200       -0.46600
H         16.46200       -0.19100       -1.25100
H         16.97100       -0.36500        0.22100
H         16.07100        0.86200       -0.15700
C         17.71300        1.91900       -2.04300
H         16.97300        2.50300       -1.86600
H         18.48500        2.44200       -2.27300
H         17.49300        1.33600       -2.77400
C         19.45200        1.15200        1.91800
C         20.89400        0.91500        1.43500
H         21.42600        0.59100        2.16400
H         20.89100        0.26600        0.72600
H         21.26200        1.74100        1.11000
C         18.75500       -0.17800        2.19700
H         17.86100       -0.01300        2.50100
H         18.72800       -0.70100        1.39100
H         19.23900       -0.65900        2.87200
C         19.53600        1.89300        3.25000
H         20.07100        2.68300        3.14500
H         18.65200        2.14200        3.53400
H         19.93500        1.32200        3.91000
