98
C:\Users\Javier\OneDrive - Universitat de Barcelona\Tesi\4 - Contribucions\Treballs\3-PhD\chapter_1\cif\pcp\AVEFIQ.pcp.pdb
Ru         1.05400        4.62700       13.27700
P          0.27700        5.29400       15.34900
P          0.67500        6.94000       13.14400
C         -0.63000        4.05600       12.72900
H         -1.40600        4.39300       13.16200
C         -0.76600        3.11400       11.66200
H         -0.00200        2.95900       11.11800
C          0.17400        7.10500       14.92200
H         -0.74300        7.46500       15.02300
H          0.81100        7.65300       15.44400
C         -1.43300        4.90300       16.12100
C         -2.58800        5.50500       15.32200
H         -2.56100        5.16800       14.40300
H         -2.50400        6.48100       15.31400
H         -3.43800        5.25300       15.73900
C         -1.65400        3.38600       16.18100
H         -2.58300        3.20100       16.42800
H         -1.05300        2.99700       16.85000
H         -1.46400        2.99300       15.30200
C         -1.57500        5.54800       17.51900
H         -1.37200        6.50400       17.45900
H         -0.94900        5.12000       18.14000
H         -2.49100        5.42800       17.84500
C          1.57500        5.05700       16.71900
C          1.63200        6.23100       17.70500
H          2.21500        5.99600       18.45900
H          0.73000        6.42100       18.03900
H          1.98700        7.02200       17.25300
C          2.94900        4.88900       16.07000
H          3.17300        5.70000       15.56700
H          2.93100        4.12100       15.46200
H          3.62100        4.74100       16.76800
C          1.33400        3.71900       17.48100
H          1.30400        2.97800       16.84000
H          0.48200        3.76700       17.96600
H          2.06400        3.56900       18.11800
C          2.18100        8.09900       12.98000
C          3.28000        7.60700       13.92000
H          3.49700        6.67600       13.70800
H          2.97000        7.66700       14.84700
H          4.08000        8.16200       13.80700
C          2.72600        8.06300       11.54500
H          3.58000        8.54300       11.50800
H          2.08400        8.49100       10.94100
H          2.86100        7.13200       11.27000
C          1.88100        9.56100       13.41000
H          1.29500        9.55500       14.19700
H          1.43800       10.03500       12.67500
H          2.72100       10.01500       13.63300
C         -0.68300        7.57600       11.97300
C         -2.06600        7.09500       12.40600
H         -2.29800        7.49700       13.26900
H         -2.06100        6.11900       12.49300
H         -2.73000        7.36100       11.73500
C         -0.39100        6.97400       10.58500
H         -1.09400        7.24500        9.95800
H         -0.37100        5.99600       10.65200
H          0.47700        7.29700       10.26500
C         -0.78600        9.09900       11.87000
H          0.05200        9.45900       11.51100
H         -0.94900        9.47600       12.76200
H         -1.52600        9.33800       11.27600
C         -1.89400        2.42300       11.36300
C         -3.18700        2.50000       12.10300
H         -3.91400        2.75300       11.48000
H         -3.12800        3.19500       12.80600
C         -3.49900        1.15500       12.73700
H         -2.82100        0.95500       13.43100
H         -4.38300        1.19700       13.17800
C         -3.50500        0.05600       11.71900
H         -4.24400        0.20600       11.07800
H         -3.66100       -0.81000       12.16900
C         -2.18300        0.00600       10.96700
H         -1.45500       -0.23900       11.59100
H         -2.22900       -0.68900       10.26300
C         -1.87400        1.35100       10.33000
H         -0.98300        1.31900        9.90000
H         -2.54500        1.55000        9.63100
O          1.80500        2.71000       13.65900
O          0.25300        1.32700       14.43300
C          1.34900        1.62100       14.04100
C          2.36400        0.47900       13.93400
F          3.52400        0.81800       13.52600
F          1.84900       -0.47500       13.20000
F          2.52200       -0.11000       15.09800
O          2.03500        4.21400       11.33200
O          3.56600        4.67300       12.86100
C          3.21200        4.25100       11.75700
C          4.29700        3.71300       10.81300
F          4.80000        4.64500       10.11400
F          3.86500        2.78300       10.02900
F          5.28000        3.15500       11.48400
F          1.94100       -0.70600       13.76000
F          3.18700        0.47900       14.90800
F          3.07800        0.56800       12.82400
F          4.41200        2.44700       10.78900
F          5.44900        4.19600       10.90200
F          4.04600        4.03100        9.54400
