69
C:\Users\Javier\OneDrive - Universitat de Barcelona\Tesi\4 - Contribucions\Treballs\3-PhD\chapter_1\cif\pcp\AXENOH.pcp.pdb
Ru        -1.38600        8.02300        3.63700
P         -0.49600        9.76300        4.75800
P         -2.93000        9.66200        3.67100
C         -1.79700       10.98200        4.28000
H         -2.16200       11.48400        5.05000
H         -1.50500       11.60400        3.56700
C         -0.51100        9.65900        6.57900
C         -1.08400       10.62900        7.38700
H         -1.45800       11.40900        6.99700
C         -1.11000       10.46000        8.77400
H         -1.49300       11.13000        9.32700
C         -0.57900        9.32100        9.33800
H         -0.60900        9.20100       10.28000
C         -0.00400        8.35200        8.54000
H          0.36100        7.57000        8.93500
C          0.04200        8.51800        7.16000
H          0.44800        7.85600        6.61400
C          1.08500       10.55800        4.33000
C          1.40300       11.80100        4.89200
H          0.80200       12.21700        5.50000
C          2.59800       12.42300        4.55600
H          2.82300       13.25900        4.94700
C          3.46300       11.83300        3.65800
H          4.27900       12.26500        3.43100
C          3.14500       10.62300        3.08800
H          3.73600       10.23200        2.45500
C          1.96300        9.95900        3.43000
H          1.76200        9.11100        3.05300
C         -3.66700       10.30900        2.13700
C         -3.91800       11.68000        2.00200
H         -3.69200       12.28000        2.70300
C         -4.50100       12.15000        0.83300
H         -4.66000       13.08100        0.73000
C         -4.85300       11.28600       -0.17500
H         -5.26100       11.62100       -0.96500
C         -4.61500        9.93700       -0.04200
H         -4.86200        9.34300       -0.74000
C         -4.01400        9.44100        1.11100
H         -3.84300        8.51200        1.19500
C         -4.35200        9.54500        4.80500
C         -5.16300        8.42300        4.68600
H         -4.92200        7.72000        4.09600
C         -6.33200        8.33300        5.43600
H         -6.90500        7.58000        5.33400
C         -6.66500        9.33500        6.32900
H         -7.46000        9.27100        6.84500
C         -5.83700       10.43200        6.46600
H         -6.05900       11.11300        7.09100
C         -4.68200       10.55300        5.70000
H         -4.12400       11.31700        5.78900
N         -0.73100        8.75900        1.87200
C         -0.50200        9.19200        0.84300
C         -0.23100        9.75600       -0.47100
H         -0.37000       10.72700       -0.44500
H         -0.83500        9.35700       -1.13000
H          0.69800        9.56700       -0.72300
N         -2.10800        7.16800        5.30300
C         -2.42700        6.71900        6.30400
C         -2.89800        6.09500        7.54200
H         -3.82800        6.35400        7.70300
H         -2.34000        6.39400        8.29000
H         -2.84000        5.12100        7.46100
Cl        -2.67900        6.34600        2.35600
Cl         0.57200        6.49300        3.85800
C         -2.64600        6.58300        6.12300
C         -3.28900        5.88900        7.24100
H         -3.85100        6.52000        7.73700
H         -2.60300        5.52300        7.83800
H         -3.84400        5.15900        6.89600
