99
C:\Users\Javier\OneDrive - Universitat de Barcelona\Tesi\4 - Contribucions\Treballs\3-PhD\chapter_1\cif\pcp\BADZIQ.pcp.pdb
Pd         0.73300        3.59500        3.97500
N          2.85200        3.35600        4.17800
C          3.70000        4.11600        5.04600
C          3.58400        3.87900        6.42200
C          4.32800        4.68500        7.27900
H          4.26200        4.54400        8.19500
C          5.16100        5.68700        6.81500
C          5.26700        5.87900        5.45100
H          5.83100        6.54400        5.13000
C          4.55400        5.10600        4.54900
C          2.69200        2.80700        6.95500
H          1.77600        3.07500        6.85600
H          2.88600        2.66400        7.88400
H          2.84300        1.99400        6.46900
C          5.94500        6.54800        7.78000
H          5.41800        7.31200        8.02700
H          6.75700        6.84200        7.36100
H          6.15700        6.03900        8.56600
C          4.67400        5.39700        3.06700
H          5.23200        6.16600        2.93500
H          3.80200        5.56800        2.70400
H          5.06200        4.63900        2.62200
C          3.33400        2.41000        3.46600
H          4.24500        2.22700        3.45700
C          2.40300        1.64000        2.67800
C          1.02400        1.99300        2.77500
C          0.30700        1.12000        1.90100
H         -0.61100        1.12700        1.75400
C          1.24000        0.24000        1.29500
H          1.03100       -0.43900        0.69600
C          2.53900        0.56500        1.75300
H          3.33300        0.15300        1.49700
C          2.88000        3.70800        0.14600
H          3.65900        4.02100        0.54900
C          1.62200        4.19500        0.38300
H          1.40100        4.89000        0.95800
C          0.71000        3.44100       -0.41600
H         -0.21400        3.54200       -0.45000
C          1.49000        2.50800       -1.14600
H          1.17300        1.88700       -1.76100
C          2.81700        2.69000       -0.77400
H          3.54200        2.20400       -1.09400
Fe         1.70700        2.20600        0.86900
P          0.00600        5.49500        5.27600
C         -2.49900        3.38800        2.46200
C         -2.50700        4.35900        1.48000
H         -2.02900        5.14900        1.60100
C         -3.23600        4.15200        0.29700
H         -3.26400        4.81000       -0.35800
C         -3.90700        2.96900        0.11700
H         -4.37200        2.82300       -0.67600
C         -3.90300        2.00200        1.08000
H         -4.35600        1.20300        0.94400
C         -3.21400        2.22700        2.26400
H         -3.23600        1.58300        2.93500
C         -2.17600        2.54300        5.20400
C         -3.50100        2.64000        5.62300
H         -4.07500        3.24700        5.21500
C         -3.96300        1.83300        6.64400
H         -4.85300        1.88400        6.90800
C         -3.12300        0.96800        7.26700
H         -3.43900        0.44200        7.96600
C         -1.81800        0.86200        6.87900
H         -1.25400        0.25300        7.29800
C         -1.33800        1.67000        5.85300
H         -0.44200        1.61900        5.60600
C         -1.70800        5.34100        4.58400
H         -2.39300        5.40300        5.26700
H         -1.88300        5.98500        3.87800
P         -5.07700       -1.44100        4.03400
C         -0.10100        5.37500        7.08400
C         -1.14100        4.80300        7.75200
H         -1.87700        4.50400        7.26800
C         -1.13900        4.65400        9.12200
H         -1.85900        4.25400        9.55300
C         -0.05900        5.10400        9.84200
H         -0.04600        5.01500       10.76700
C          0.99400        5.67900        9.19500
H          1.73400        5.96600        9.68000
C          0.96600        5.83900        7.83300
H          1.67500        6.26600        7.40700
C          0.55500        7.18000        4.90900
C          1.81500        7.36900        4.43800
H          2.38100        6.64700        4.28500
C          2.23700        8.67600        4.19100
H          3.10700        8.80800        3.89200
C          1.47700        9.71800        4.35900
H          1.79700       10.57500        4.19400
C          0.19000        9.51500        4.78500
H         -0.38200       10.24500        4.85800
C         -0.28300        8.25400        5.11000
H         -1.13900        8.13600        5.45300
P         -1.50200        3.62600        3.94000
F         -3.69400       -0.79800        3.82900
F         -6.37900       -2.16100        4.15900
F         -4.70600       -1.73700        5.49500
F         -5.74200       -0.12500        4.45300
F         -5.37300       -1.08800        2.53500
F         -4.40200       -2.80600        3.63200
