72
C:\Users\Javier\OneDrive - Universitat de Barcelona\Tesi\4 - Contribucions\Treballs\3-PhD\chapter_1\cif\pcp\BICLEH.pcp.pdb
Ru         6.46700        5.43100       12.42800
S          6.19000        6.50300       14.54500
S          8.08700        7.26500       12.55400
C          7.44700        7.54500       14.10100
O          7.96200        8.51400       14.84600
C          7.27600        8.86300       16.09300
H          7.92200        9.25100       16.73500
H          6.88500        8.04900       16.50100
C          6.19100        9.85500       15.79900
H          6.57700       10.63800       15.35300
H          5.76700       10.13400       16.63800
H          5.52100        9.44300       15.21500
S          7.53200        4.49200       10.50800
S          8.15500        3.83700       13.22400
C          8.52100        3.63300       11.58800
O          9.55500        2.85500       11.25900
C          9.77800        2.54700        9.85400
H         10.74300        2.39200        9.69700
H          9.49400        3.31400        9.29700
C          9.00100        1.32600        9.46400
H          9.31700        0.55700        9.98300
H          9.12900        1.14900        8.50800
H          8.04900        1.47200        9.64400
C          3.46800        5.16400       11.75000
H          3.05400        4.81700       10.92000
H          2.77000        5.43600       12.39800
P          4.72300        6.48900       11.43600
C          4.00400        8.05600       12.04600
C          2.64600        8.22800       12.29300
H          2.05300        7.49100       12.20000
C          2.14700        9.46800       12.67400
H          1.21800        9.57300       12.84100
C          2.99600       10.54600       12.81200
H          2.64900       11.39700       13.05500
C          4.35400       10.38500       12.59600
H          4.94200       11.12400       12.70200
C          4.85800        9.15000       12.22500
H          5.79200        9.04400       12.09100
C          4.78000        6.82000        9.63400
C          3.97500        6.22800        8.68200
H          3.33700        5.57600        8.94800
C          4.08600        6.57400        7.33600
H          3.53200        6.14800        6.69100
C          4.98800        7.52100        6.94000
H          5.05500        7.76300        6.02400
C          5.79100        8.11800        7.87000
H          6.41100        8.78500        7.59900
C          5.70600        7.75800        9.20700
H          6.29200        8.15900        9.83900
P          4.72200        4.00300       12.47600
C          3.98200        3.42600       14.03700
C          4.73200        3.43000       15.21900
H          5.64900        3.67700       15.20200
C          4.12600        3.07000       16.42500
H          4.63200        3.07500       17.22900
C          2.79100        2.70800       16.44900
H          2.38200        2.46700       17.27200
C          2.04700        2.69500       15.27800
H          1.13100        2.44400       15.30200
C          2.63700        3.04700       14.07200
H          2.12700        3.03100       13.27000
C          4.70200        2.52300       11.41000
C          4.83000        1.24100       11.94600
H          4.86600        1.12700       12.88900
C          4.90500        0.12900       11.12000
H          5.00200       -0.73700       11.49700
C          4.83900        0.28200        9.74400
H          4.87600       -0.48100        9.17900
C          4.71900        1.54400        9.19400
H          4.67500        1.64800        8.25100
C          4.66400        2.65400       10.01800
H          4.59800        3.52000        9.63200
