164
C:\Users\Javier\OneDrive - Universitat de Barcelona\Tesi\4 - Contribucions\Treballs\3-PhD\chapter_1\cif\pcp\BIJPEP.pcp.pdb
Rh         4.36100        1.47100        2.39500
P          5.77900        0.26500        3.63200
P          5.91800        2.85900        3.14500
C          1.99400        1.13300        2.46900
C          2.66500        0.15500        1.59500
H          2.65400       -0.78200        1.87700
C          3.46100        0.47900        0.49100
H          3.95100       -0.21400        0.00300
C          3.64200        1.81600        0.20300
H          4.29200        2.07700       -0.48200
C          3.10800        2.78200        1.03700
H          3.36900        3.71600        0.90900
C          2.30600        2.46300        2.09200
H          2.05100        3.18300        2.70800
C          1.00700        0.67700        3.45700
H          0.14000        0.64100        3.04700
H          0.98500        1.29100        4.19500
H          1.25000       -0.19500        3.77400
C          5.24100       -0.67300        5.13300
H          5.32200       -1.62700        4.92700
C          3.81400       -0.41100        5.49900
H          3.58900       -0.91300        6.28700
H          3.24200       -0.68000        4.77600
H          3.69400        0.52500        5.67100
C          6.12700       -0.38800        6.38500
H          5.92000       -1.02300        7.07700
H          5.95200        0.50100        6.70500
H          7.05500       -0.46700        6.14700
C          6.82500       -0.96500        2.71900
H          7.22900       -0.48200        1.96700
C          5.96600       -2.05700        2.11200
H          6.53000       -2.71100        1.69100
H          5.37800       -1.67400        1.45500
H          5.44900       -2.47800        2.80100
C          7.98200       -1.55600        3.51500
H          8.62600       -1.93400        2.91100
H          7.65100       -2.24200        4.09900
H          8.39800       -0.86500        4.03500
C          5.39700        4.22000        4.28500
H          4.78900        4.80000        3.78000
C          6.56000        5.10500        4.77300
H          7.18500        4.57300        5.29000
H          7.03400        5.48000        4.01500
C          5.99400        6.22400        5.63600
H          5.40500        6.77700        5.09800
H          6.72100        6.78400        5.95300
C          5.22600        5.68500        6.82100
H          5.81600        5.16200        7.38500
H          4.87600        6.42000        7.35000
C          4.09900        4.82600        6.33600
H          3.47800        5.36800        5.82500
H          3.62000        4.46000        7.09700
C          4.61700        3.68400        5.46200
H          5.19000        3.10500        5.99000
H          3.87000        3.15500        5.14200
C          7.06700        3.65900        1.93800
H          7.81000        4.04400        2.44900
C          6.37000        4.81500        1.18800
H          5.62300        4.46800        0.67700
H          6.02400        5.45500        1.83000
C          7.35000        5.51000        0.25600
H          8.05400        5.92300        0.77900
H          6.88700        6.21100       -0.23000
C          7.97200        4.52200       -0.75000
H          7.28200        4.17800       -1.33600
H          8.63000        4.98300       -1.29300
C          8.64100        3.36400       -0.01500
H          9.40000        3.69700        0.49100
H          8.97200        2.72200       -0.66200
C          7.65900        2.66100        0.94400
H          6.94500        2.25100        0.43000
H          8.12500        1.96000        1.42600
C          6.92200        1.64200        4.10200
H          6.93800        1.82000        5.05800
H          7.82300        1.52900        3.75900
Rh        10.92100        9.67500       11.09800
P          9.51300        8.43500        9.88400
P          9.33000       11.02800       10.33500
C         13.25700        9.22200       11.21100
C         13.06300       10.60400       11.34700
H         13.42500       11.23900       10.69400
C         12.19300       11.02900       12.39900
H         11.96000       11.97800       12.46300
C         11.57900       10.11600       13.27600
H         10.93100       10.42100       13.94500
C         11.78200        8.77700       13.05000
H         11.23700        8.13200       13.54900
C         12.55700        8.31200       11.98100
H         12.57700        7.35700       11.76300
C         14.23200        8.77900       10.14800
H         15.12900        8.90100       10.46400
H         14.09900        9.30400        9.35400
H         14.08700        7.85200        9.94400
C         10.02400        7.52600        8.37800
H          9.78900        6.60000        8.59900
C         11.42400        7.44200        8.15500
H         11.58800        7.15500        7.25400
H         11.80800        6.81100        8.77100
H         11.82200        8.30400        8.29100
C          9.28600        7.75300        7.18100
H          9.49500        7.05700        6.54500
H          9.52900        8.61000        6.81200
H          8.34800        7.74100        7.37600
C          8.50500        7.19300       10.83300
H          8.09800        7.67600       11.58000
C          9.38200        6.13200       11.43200
H          8.84200        5.50900       11.92000
H         10.01700        6.53900       12.02400
H          9.84900        5.67000       10.73100
C          7.35000        6.58300       10.02000
H          6.83700        5.99900       10.58300
H          7.70700        6.08300        9.28200
H          6.78600        7.28400        9.68900
C          9.77100       12.38700        9.17400
H         10.30500       13.02800        9.68900
C         10.65600       11.91000        8.01800
H         11.44900       11.48300        8.37800
H         10.17300       11.25500        7.49200
C         11.07000       13.07300        7.12000
H         11.64800       13.67000        7.62300
H         11.57800       12.72800        6.37100
C          9.88600       13.85300        6.60000
H         10.19600       14.61900        6.09500
H          9.36200       13.29100        6.00500
C          9.01400       14.32300        7.75700
H          8.23400       14.78000        7.40500
H          9.51300       14.95700        8.29400
C          8.55900       13.16000        8.64000
H          7.99400       12.56300        8.12600
H          8.03800       13.50100        9.38400
C          8.18700       11.80900       11.53900
H          7.42300       12.16100       11.03900
C          7.64700       10.80700       12.57000
H          7.22300       10.06400       12.11100
H          8.37800       10.45800       13.10200
C          6.63300       11.49600       13.48000
H          5.88000       11.80500       12.95100
H          6.30100       10.86400       14.13600
C          7.28700       12.68400       14.18900
H          6.62100       13.13500       14.73500
H          7.98200       12.35800       14.78100
C          7.87900       13.66600       13.23000
H          8.35100       14.35400       13.72400
H          7.16900       14.09300       12.72700
C          8.84400       12.98300       12.26500
H          9.15300       13.63000       11.61200
H          9.61700       12.66300       12.75600
C          8.37300        9.74300        9.43000
H          7.48000        9.61200        9.78700
H          8.33400        9.90100        8.47400
P          2.00300        6.76000        2.67900
F          1.65800        5.78700        3.89900
F          3.15800        5.80000        2.21100
F          0.85600        7.76600        3.11400
F          3.00000        7.52700        3.61700
F          0.97200        6.00900        1.74900
F          2.36800        7.73900        1.49600
P          3.90800        9.46900       10.67300
F          4.22100        8.44000        9.60700
F          4.89800        8.75300       11.62000
F          2.75600        8.53300       11.14700
F          5.04600       10.45100       10.26100
F          2.89100       10.15400        9.71200
F          3.58900       10.48500       11.79800
