60
C:\Users\Javier\OneDrive - Universitat de Barcelona\Tesi\4 - Contribucions\Treballs\3-PhD\chapter_1\cif\pcp\BIXJIC.pcp.pdb
Pd         7.57900        5.19700        4.42500
Cl         9.63600        6.33200        4.46400
Cl         7.59700        4.92000        2.08700
O          3.08600        4.02300        7.83100
P          7.23800        5.15400        6.63000
P          5.64500        4.12500        4.70600
C          6.98900        6.69200        7.55200
C          5.98900        6.79000        8.52000
H          5.40800        6.07900        8.66500
C          5.86800        7.96100        9.26500
H          5.20100        8.03700        9.90800
C          6.73700        9.00700        9.04900
H          6.66900        9.77900        9.56400
C          7.69000        8.91800        8.09400
H          8.25200        9.64400        7.94300
C          7.85100        7.76500        7.32600
H          8.51800        7.71200        6.67800
C          8.41900        4.17400        7.58800
C          8.26000        4.00900        8.96000
H          7.53500        4.39700        9.39600
C          9.18800        3.26100        9.68200
H          9.07600        3.14300       10.59800
C         10.26100        2.70300        9.05300
H         10.87400        2.20300        9.54100
C         10.44100        2.86800        7.71900
H         11.18300        2.48900        7.30500
C          9.53000        3.60200        6.95700
H          9.65800        3.70900        6.04100
C          5.56900        4.32300        6.55700
H          4.89400        5.00700        6.75100
C          5.24600        3.10800        7.42600
H          5.48300        2.30100        6.94400
H          5.78700        3.14200        8.23200
C          3.77900        3.03800        7.81700
C          3.27400        1.70800        8.25100
H          2.34400        1.77700        8.48000
H          3.77000        1.41200        9.01800
H          3.38100        1.07600        7.53600
C          4.15700        4.84800        3.97500
C          3.04800        5.13300        4.74100
H          3.03200        4.91800        5.64700
C          1.94300        5.75000        4.14100
H          1.19200        5.93900        4.65400
C          1.94800        6.07300        2.83000
H          1.21900        6.51400        2.45600
C          3.01100        5.75700        2.06300
H          3.00400        5.96300        1.15700
C          4.13300        5.11700        2.62500
H          4.85300        4.87900        2.08600
C          5.66400        2.35400        4.32200
C          4.48600        1.64200        4.26800
H          3.67000        2.07600        4.37300
C          4.52500        0.26700        4.05600
H          3.73500       -0.22400        4.02900
C          5.73800       -0.36000        3.88200
H          5.75600       -1.27600        3.72100
C          6.90500        0.33000        3.94500
H          7.71600       -0.11500        3.84500
C          6.88400        1.70800        4.15700
H          7.68000        2.19000        4.18900
