168
C:\Users\Javier\OneDrive - Universitat de Barcelona\Tesi\4 - Contribucions\Treballs\3-PhD\chapter_1\cif\pcp\CENVOI.pcp.pdb
Ru         4.87800        9.85100        2.48300
P          5.59300       11.36700        4.10200
P          4.39900        9.06900        4.62100
C          6.52400        8.42300        2.53000
C          7.02000        9.53100        2.20600
C          6.63800        6.98700        2.70100
C          8.11500       10.27900        1.61300
C          5.54300        6.13100        2.49500
C          5.69200        4.77300        2.65900
C          6.90000        4.23200        3.02600
C          7.99400        5.06700        3.22300
C          7.86100        6.43100        3.07300
C          9.37000        9.70300        1.55900
C         10.41500       10.35400        0.90000
C         10.18300       11.58300        0.31500
C          8.96300       12.18400        0.40400
C          7.91300       11.53800        1.04400
C          4.32500        9.01300        0.47900
C          4.73800       10.35500        0.28700
C          3.83800       11.19100        1.00800
C          2.89000       10.36200        1.64100
C          3.18600        9.02100        1.30700
C          7.15700       12.28900        4.09400
C          8.35300       11.72500        4.49600
C          9.53900       12.48900        4.42200
C          9.49900       13.80000        3.99200
C          8.31200       14.33300        3.59500
C          7.14200       13.60500        3.65100
C          4.44900       12.58000        4.82900
C          4.84500       13.23400        5.99100
C          3.97300       14.01500        6.69800
C          2.65600       14.18200        6.23500
C          2.25400       13.56400        5.06200
C          3.15700       12.77100        4.36100
C          5.69900       10.08900        5.41200
C          2.80000        9.60300        5.32100
C          2.71400       10.18600        6.57600
C          1.49300       10.58400        7.09600
C          0.34300       10.35300        6.36700
C          0.40400        9.75200        5.13500
C          1.62300        9.37500        4.60800
C          4.54700        7.38300        5.27100
C          3.43500        6.53200        5.21000
C          3.51600        5.25100        5.74400
C          4.68200        4.78700        6.31300
C          5.79000        5.62400        6.34300
C          5.72900        6.90500        5.84300
H          4.70100        6.49100        2.24300
H          4.94700        4.20200        2.51800
H          6.98700        3.29400        3.14300
H          8.83600        4.69700        3.46100
H          8.61000        6.99600        3.22600
H          9.52300        8.86200        1.97300
H         11.27500        9.95300        0.85100
H         10.88600       12.01900       -0.15300
H          8.83000       13.04500        0.02800
H          7.05800       11.95100        1.09300
H          4.74400        8.24300        0.11100
H          5.48100       10.64400       -0.23000
H          3.87100       12.14000        1.05400
H          2.17700       10.65400        2.19800
H          2.70000        8.25600        1.59000
H          8.37800       10.83200        4.81800
H         10.36800       12.09700        4.66900
H         10.29100       14.32400        3.97300
H          8.28800       15.22700        3.27300
H          6.32300       14.00600        3.38600
H          5.73800       13.13600        6.29900
H          4.25600       14.44300        7.49600
H          2.04400       14.71600        6.72400
H          1.36800       13.67900        4.74000
H          2.88600       12.35400        3.55000
H          6.58200        9.63900        5.44600
H          5.44400       10.42500        6.30600
H          3.50500       10.31400        7.08600
H          1.44700       11.00900        7.94300
H         -0.49900       10.61200        6.72000
H         -0.39500        9.59300        4.64400
H          1.66000        8.96000        3.75500
H          2.62800        6.83000        4.80600
H          2.75400        4.68400        5.71400
H          4.72700        3.91100        6.67700
H          6.60400        5.30700        6.71500
H          6.49200        7.46900        5.88800
F          9.26600       17.58000       -0.48000
F          8.17000       17.27300        1.31400
F          8.51000       15.68300       -0.02500
F         12.89400       12.77900        1.84600
F         12.99000       13.53400       -0.16300
F         14.45200       14.14000        1.30000
F         17.17100       15.78800        2.90200
F         18.46000       17.31300        3.68100
F         17.02700       17.78200        2.18400
F         15.59300       19.06300        8.50000
F         17.16700       17.62700        8.34200
F         15.17300       17.00100        8.82000
F         13.19600       21.27000        0.84000
F         14.51300       22.24600        2.17800
F         12.67700       23.18200        1.64100
F         10.56500       23.53800        5.95500
F         10.03600       21.78500        7.05100
F         11.95700       22.64700        7.28800
F          7.36600       18.08900        6.35000
F          7.36200       17.00500        8.16300
F          6.88600       16.04200        6.35600
F         12.46800       14.36700        8.80000
F         10.64100       13.36700        8.73300
F         12.05700       13.09800        7.12200
C         11.89700       16.88100        3.08500
C         10.74300       17.18400        2.33900
C         10.35500       16.41400        1.23900
C         11.12500       15.34700        0.80700
C         12.26100       15.03800        1.51700
C         12.61800       15.77000        2.65500
C          9.09300       16.74000        0.52400
C         13.13800       13.89300        1.13800
C         13.82500       17.58100        4.89300
C         14.85700       17.44500        3.97100
C         16.19400       17.35400        4.34700
C         16.56300       17.47600        5.67600
C         15.56600       17.68600        6.60900
C         14.22600       17.73900        6.22800
C         17.22300       17.06700        3.30600
C         15.88400       17.83400        8.06000
C         12.01500       19.28900        4.33800
C         12.51400       19.95800        3.20900
C         12.56000       21.35000        3.11600
C         12.08400       22.13200        4.15700
C         11.54800       21.50500        5.27800
C         11.54000       20.11000        5.36100
C         13.22300       22.00200        1.94500
C         11.02900       22.34800        6.37400
C         11.29100       16.94900        5.59100
C          9.95300       17.28000        5.80700
C          9.13200       16.58100        6.69800
C          9.64000       15.49900        7.40200
C         10.94200       15.13100        7.19900
C         11.74700       15.82800        6.30600
C          7.70900       16.94500        6.89200
C         11.52700       13.98600        7.94900
B         12.23900       17.68300        4.48100
H         10.21200       17.93300        2.58900
H         10.87300       14.84100        0.04400
H         13.38000       15.49900        3.15300
H         14.64000       17.40900        3.04500
H         17.47400       17.41500        5.93900
H         13.56400       17.88800        6.89200
H         12.83200       19.44200        2.47600
H         12.12200       23.08000        4.10700
H         11.19600       19.70400        6.14800
H          9.58300       18.01400        5.32800
H          9.09400       15.02400        8.01700
H         12.64000       15.53500        6.17200
C          6.33400        9.30300        9.02200
C          7.54600        9.26800        8.46000
C          8.18900       10.44900        8.11700
H          5.90100        8.48700        9.24200
H          7.96900        8.43300        8.29500
H          9.04600       10.43500        7.70900
F         12.55100       13.41500        7.49600
F         11.71300       14.18200        9.21400
F         10.72800       12.88800        7.91700
C          7.56500       11.62300        8.37800
C          6.35300       11.65800        8.94000
C          5.71000       10.47700        9.28300
H          7.99800       12.44000        8.15900
H          5.93000       12.49300        9.10600
H          4.85300       10.49100        9.69200
