72
C:\Users\Javier\OneDrive - Universitat de Barcelona\Tesi\4 - Contribucions\Treballs\3-PhD\chapter_1\cif\pcp\FERVUT.pcp.pdb
Ru         8.56200        4.20400       14.13500
P          9.65800        6.07700       14.99000
P          7.54900        6.07400       13.15200
Cl        10.21500        2.60400       14.85500
Cl         7.78200        2.55200       12.57100
C          7.34200        4.00300       15.47900
C          6.95300        2.63400       15.99400
C          7.29600        2.53800       17.47400
H          8.26800        2.60100       17.58800
H          6.98100        1.68000       17.82700
H          6.86000        3.27100       17.95700
C          5.45400        2.42100       15.75100
H          4.95200        3.17300       16.13000
H          5.16800        1.58800       16.18000
H          5.28500        2.36800       14.78700
C          8.72800        7.29600       13.92000
H          8.25900        7.98600       14.45400
H          9.31300        7.72900       13.24800
C          9.52700        6.62600       16.80700
C         10.36700        7.87400       17.11600
H         10.21500        8.14900       18.04400
H         10.10500        8.60100       16.51300
H         11.31600        7.66900       16.98700
C          8.09000        7.00600       17.16600
H          7.50600        6.22800       17.04400
H          7.79100        7.73400       16.58200
H          8.05400        7.29900       18.10100
C          9.93100        5.44800       17.71600
H          9.64900        5.63500       18.63500
H         10.90400        5.33400       17.69000
H          9.49600        4.62800       17.40000
C         11.51500        6.18500       14.50500
C         12.40500        5.55900       15.58500
H         12.11300        4.64000       15.75700
H         12.33500        6.08400       16.41000
H         13.33700        5.55400       15.27900
C         11.76800        5.36200       13.23200
H         12.73400        5.27500       13.08600
H         11.36100        5.81500       12.46300
H         11.37200        4.47300       13.33300
C         11.95200        7.63200       14.22200
H         11.80800        8.17900       15.02300
H         11.42400        7.99400       13.48100
H         12.90300        7.64500       13.98500
C          5.75100        6.59300       13.48500
C          5.59600        7.09300       14.92500
H          6.13900        7.90000       15.05200
H          5.89800        6.39700       15.54700
H          4.65400        7.30200       15.10000
C          4.84400        5.36100       13.30300
H          5.15300        4.63900       13.88900
H          4.88100        5.06200       12.37100
H          3.92000        5.59700       13.53300
C          5.25500        7.74100       12.58900
H          4.35400        8.00600       12.86600
H          5.23500        7.44300       11.65600
H          5.86100        8.50800       12.67500
C          7.82100        6.19800       11.27000
C          6.81000        5.31400       10.53500
H          7.07800        5.22300        9.59700
H          5.92100        5.72500       10.58300
H          6.78500        4.42900       10.95500
C          7.77900        7.63400       10.71500
H          8.27000        8.23100       11.31700
H          6.84700        7.93100       10.64900
H          8.19000        7.65300        9.82600
C          9.21800        5.65900       10.97900
H          9.35400        5.60700       10.00900
H          9.31100        4.76500       11.37000
H          9.88700        6.25800       11.37000
H          7.45000        2.10400       15.60100
H          6.86000        4.66400       15.91900
