52
C:\Users\Javier\OneDrive - Universitat de Barcelona\Tesi\4 - Contribucions\Treballs\3-PhD\chapter_1\cif\pcp\FUNGAW.pcp.pdb
H         -1.10500        3.81100       12.37700
H         -0.66500        2.39300       12.85400
H          2.17200        6.06000       11.18500
H          1.82300        7.65100        9.49700
H          0.31500        7.19200        7.76800
H         -0.92200        5.25800        7.80800
H         -0.55500        3.65300        9.47700
H          2.33100        2.73600        9.25800
H          2.80100        0.74500        8.14600
H          2.17700       -1.28900        9.09900
H          1.17100       -1.34700       11.18500
H          0.68400        0.65900       12.27800
H         -0.50100        1.26100       14.72200
H         -0.97700        0.04300       16.66900
H         -0.86400        1.06000       18.73500
H         -0.17900        3.29500       18.91400
H          0.32100        4.49900       17.02600
H          1.31200        6.73400       14.32400
H          0.35300        8.79700       14.76100
H         -1.89800        8.95400       15.25800
H         -3.23300        7.03500       15.29800
H         -2.29100        4.95700       14.84100
I          4.73000        4.10500       12.10400
I          3.51100        4.85100       15.78400
Pd         2.46100        4.07800       13.47400
P          0.35900        4.02900       14.24700
P          1.16000        3.45200       11.74500
C         -0.38500        3.29400       12.72900
C          0.86800        4.69500       10.47000
C          1.55200        5.88100       10.48000
C          1.34600        6.82700        9.48700
C          0.44500        6.56200        8.47500
C         -0.25200        5.41400        8.48900
C         -0.05400        4.45700        9.47900
C          1.45900        1.88700       10.87500
C          2.08600        1.90300        9.65100
C          2.36500        0.72500        8.99600
C          2.00200       -0.47900        9.56600
C          1.39900       -0.51300       10.78600
C          1.11500        0.67800       11.44200
C         -0.07000        3.02300       15.68100
C         -0.44100        1.68100       15.58200
C         -0.72600        0.96100       16.73000
C         -0.64600        1.55000       17.94600
C         -0.24600        2.88700       18.06100
C          0.04100        3.60000       16.94300
C         -0.38300        5.64500       14.54900
C          0.38900        6.78800       14.51700
C         -0.18100        8.01500       14.77900
C         -1.51400        8.10800       15.06900
C         -2.30700        6.96700       15.09300
C         -1.74800        5.73500       14.82900
