82
C:\Users\Javier\OneDrive - Universitat de Barcelona\Tesi\4 - Contribucions\Treballs\3-PhD\chapter_1\cif\pcp\GIFXEZ.pcp.pdb
Ru         1.16300       10.53500       12.37400
Cl         1.90700       11.42300       10.29200
C          2.39400       10.99400       14.21600
H          2.55400       11.81300       14.67400
C          3.25000       10.61600       13.21400
C          3.03500        9.35700       12.56800
H          3.60600        9.09500       11.85700
C          2.01200        8.51500       12.96200
C          1.09700        8.97400       13.93800
H          0.34300        8.43800       14.15800
C          1.28300       10.21000       14.59100
C          4.41800       11.43900       12.77500
H          5.25000       10.96000       12.97200
H          4.41200       12.29500       13.25200
H          4.35700       11.60300       11.80900
C          1.88600        7.10900       12.40000
H          2.16500        6.45900       13.07800
H          2.45800        7.02300       11.60800
H          0.95400        6.94000       12.14900
C          0.39600       10.55400       15.73100
H          0.64600       10.02000       16.51300
H         -0.53500       10.36400       15.49100
H          0.49000       11.50700       15.94300
P         -0.30700       12.34800       12.14400
C          0.24000       13.94100       11.43800
C         -0.63400       14.70400       10.69100
F         -1.89700       14.26300       10.47400
C         -0.27000       15.92200       10.14400
F         -1.17300       16.60100        9.42100
C          0.97600       16.40900       10.37800
F          1.32000       17.59200        9.85600
C          1.85000       15.70200       11.13700
F          3.06000       16.21000       11.39000
C          1.48400       14.46700       11.65800
F          2.37600       13.83700       12.41400
C         -1.39000       13.05500       13.45100
C         -2.76400       13.16500       13.44000
F         -3.49100       12.74000       12.39300
C         -3.46400       13.70300       14.48700
F         -4.80000       13.74100       14.45300
C         -2.81100       14.16400       15.60100
F         -3.46900       14.65100       16.62500
C         -1.41800       14.09700       15.64000
F         -0.78600       14.52700       16.71000
C         -0.75900       13.56500       14.56600
F          0.59200       13.55300       14.63000
C         -1.33900       11.50700       10.85700
H         -2.30700       11.52700       11.07100
H         -1.18200       11.86300        9.94700
P         -0.59400        9.84900       11.11000
C         -0.45300        9.16400        9.42500
C          0.67100        8.51300        8.95400
F          1.75800        8.36200        9.74000
C          0.72700        7.97100        7.71600
F          1.82600        7.31600        7.30000
C         -0.34900        8.06700        6.87300
F         -0.32100        7.51100        5.66300
C         -1.49700        8.69700        7.31400
F         -2.58400        8.72600        6.51900
C         -1.52500        9.23400        8.56400
F         -2.67500        9.80000        8.97700
C         -1.86100        8.76000       11.85200
C         -2.10900        7.44100       11.47500
F         -1.37300        6.85300       10.52800
C         -3.11900        6.70700       12.03700
F         -3.35500        5.46800       11.61400
C         -3.91400        7.25800       13.00300
F         -4.92700        6.57000       13.52100
C         -3.66900        8.53100       13.45500
F         -4.42100        9.05100       14.41300
C         -2.65500        9.21400       12.89900
F         -2.39100       10.45400       13.40000
C          0.28200       12.83200        6.11400
H         -0.43000       12.72700        5.43400
H          0.98000       13.42300        5.73600
Cl        -0.39700       13.57900        7.55700
Cl         0.97500       11.26600        6.48000
B         -0.51600        4.78900       14.02900
F         -1.41700        4.24900       14.76700
F         -0.34400        6.08600       14.54100
F         -0.76900        5.02400       12.69600
F          0.67800        4.17400       14.06400
