88
C:\Users\Javier\OneDrive - Universitat de Barcelona\Tesi\4 - Contribucions\Treballs\3-PhD\chapter_1\cif\pcp\HEFLOW.pcp.pdb
Rh         5.52600        5.37500        6.99400
B          8.72200        3.37300        5.76000
O          7.32700        2.84300        5.56200
O          8.68500        3.99000        7.10600
C          6.59900        3.26900        6.60400
C          7.41500        3.97000        7.53500
C          6.91500        4.47500        8.73400
H          7.47400        4.92900        9.35400
C          5.54400        4.27900        8.98100
H          5.16200        4.62300        9.78000
C          4.72500        3.58500        8.06900
H          3.80300        3.47200        8.26700
C          5.24300        3.04800        6.85900
H          4.69400        2.56400        6.25300
O          9.05000        4.36700        4.71500
O          9.72200        2.31000        5.61100
C          9.99400        3.79500        3.91700
C         10.40500        2.56400        4.46000
C         11.35100        1.78700        3.83200
H         11.62000        0.94700        4.18600
C         11.89500        2.29600        2.64500
H         12.54600        1.78100        2.18200
C         11.51900        3.51700        2.12600
H         11.92500        3.83500        1.32800
C         10.54600        4.29000        2.76300
H         10.27500        5.12900        2.40900
P          6.04800        6.88000        5.44200
C          6.34500        6.48200        3.68800
C          6.49500        5.18200        3.24700
H          6.40000        4.45800        3.85400
C          6.91400        5.98000        1.01700
H          7.11900        5.80500        0.10600
C          6.78600        4.93700        1.90400
H          6.89700        4.04400        1.60200
C          6.74500        7.28900        1.45300
H          6.83000        8.01100        0.84000
C          6.45300        7.53400        2.78100
H          6.32600        8.42700        3.07900
C          7.38500        8.08200        5.76300
C          8.69800        7.67900        5.55300
H          8.87500        6.79700        5.24700
C          9.74500        8.54700        5.78100
H         10.63800        8.26200        5.62600
C          9.50000        9.84100        6.24200
H         10.21900       10.44800        6.38100
C          8.20600       10.22600        6.49000
H          8.03500       11.09500        6.83200
C          7.14600        9.36700        6.24900
H          6.25500        9.65300        6.41600
C          4.45800        7.80500        5.48700
H          3.88700        7.64300        4.69400
H          4.57200        8.77600        5.64200
P          3.90600        6.88600        6.98500
C          2.19600        6.33100        6.66500
C          1.98500        5.38800        5.65600
H          2.72500        5.02400        5.18500
C          0.69300        4.98300        5.33800
H          0.55300        4.35600        4.63700
C         -0.38500        5.48800        6.03900
H         -1.26800        5.21400        5.81900
C         -0.17600        6.39000        7.05700
H         -0.91600        6.72500        7.54900
C          1.10900        6.81200        7.37000
H          1.24300        7.43600        8.07400
C          3.72800        8.08100        8.34600
C          3.60700        9.45200        8.13800
H          3.59500        9.79900        7.25400
C          3.50300       10.31500        9.22300
H          3.43600       11.25200        9.07800
C          3.49600        9.81900       10.51100
H          3.42900       10.41300       11.24900
C          3.58700        8.46200       10.72500
H          3.56800        8.12100       11.61200
C          3.70600        7.59200        9.64900
H          3.77200        6.65800        9.80300
O          8.90900        6.66100       10.18600
C          8.41200        7.07700       11.37300
H          9.04800        7.70200       11.80500
H          8.27900        6.30300       11.97400
C          7.13000        7.75400       11.13700
H          7.00400        8.50900       11.76500
H          6.37100        7.12400       11.23200
C          7.26200        8.24400        9.70600
H          6.52500        7.90100        9.14200
H          7.26500        9.23300        9.66700
C          8.56500        7.69000        9.27200
H          8.49500        7.32500        8.35500
H          9.25700        8.39800        9.27700
