77
C:\Users\Javier\OneDrive - Universitat de Barcelona\Tesi\4 - Contribucions\Treballs\3-PhD\chapter_1\cif\pcp\HIPZAH.pcp.pdb
Pd         5.28000        8.58000       11.68300
P          3.99300        6.85600       11.12000
P          6.21000        6.73900       12.54300
O          4.08900       10.11500       10.81000
O          5.52800        9.96800        9.18900
O          3.92100       11.41200        9.09200
O          6.57800       10.14100       12.23100
O          7.50400        9.05100       13.87900
O          8.21600       10.99200       13.32600
N          4.52900       10.50200        9.65400
N          7.45300       10.04600       13.17600
C          5.27300        5.59000       11.44900
H          5.77200        5.32400       10.64800
H          4.92800        4.80300       11.91800
C          3.43000        6.72400        9.41800
C          2.16300        6.28800        9.10700
H          1.54500        6.08400        9.78400
C          1.81500        6.15100        7.76400
H          0.95400        5.84700        7.54100
C          2.68800        6.45100        6.77500
H          2.43700        6.34300        5.87600
C          3.92300        6.90300        7.08500
H          4.53100        7.11100        6.39900
C          4.29500        7.06300        8.40500
H          5.14600        7.40400        8.61200
C          2.59500        6.60500       12.21800
C          2.21200        5.37800       12.64800
H          2.70700        4.61800       12.40100
C          1.08800        5.24500       13.45400
H          0.81700        4.38800       13.72900
C          0.38200        6.31800       13.84500
H         -0.37300        6.21200       14.39300
C          0.76100        7.54700       13.44700
H          0.26800        8.30000       13.71600
C          1.87800        7.70500       12.64400
H          2.15200        8.56700       12.38800
C          7.97500        6.46500       12.30000
C          8.50400        6.63100       11.02800
H          7.94000        6.86100       10.31200
C          9.85900        6.45900       10.81500
H         10.21800        6.57500        9.95500
C         10.67900        6.11600       11.86500
H         11.60100        6.00300       11.72100
C         10.15900        5.93800       13.11500
H         10.72300        5.69400       13.82600
C          8.80700        6.11300       13.34200
H          8.45300        5.99000       14.20500
C          5.69900        6.30800       14.21400
C          5.74900        4.97800       14.62100
H          6.10500        4.32200       14.04900
C          5.27300        4.62500       15.86700
H          5.31400        3.72900       16.14700
C          4.73500        5.58300       16.70700
H          4.41100        5.33800       17.55300
C          4.67500        6.89800       16.30400
H          4.30600        7.54700       16.87600
C          5.15700        7.26700       15.05800
H          5.11500        8.16500       14.78500
C          0.99000       11.01000       10.03100
H          1.92500       11.13400       10.33400
Cl         0.58800       12.33500        8.97700
Cl        -0.03100       11.00900       11.43200
Cl         0.93500        9.49100        9.22100
Cl         0.40000        9.65700        8.78500
C          2.95300       11.38700       15.25000
H          2.98900       12.31100       15.60300
Cl         3.34600       10.28800       16.53000
Cl         4.11500       11.23400       13.96000
Cl         1.32400       11.06200       14.68800
C          1.52800        1.47100       10.17200
H          2.47700        1.28600       10.37900
Cl         0.72900        1.41100       11.64500
Cl         1.52700        2.92800        9.33100
Cl         1.00600        0.14300        9.15300
Cl         1.07500        0.35500       11.32500
Cl         1.45300        1.76700        8.52800
Cl         0.52200        2.83600       10.65100
