85
C:\Users\Javier\OneDrive - Universitat de Barcelona\Tesi\4 - Contribucions\Treballs\3-PhD\chapter_1\cif\pcp\HIQNIF.pcp.pdb
Pd         1.30200        4.68400       10.98100
Cl         0.17600        4.78500        8.88500
Cl         3.27500        3.64400       10.16300
P         -0.35400        5.67600       12.07900
P          1.98900        4.88200       13.09800
C         -1.84200        4.68900       12.49200
H         -2.37800        5.21400       13.15400
C         -1.45700        3.35800       13.15600
H         -0.90900        2.82200       12.53000
H         -0.91200        3.53600       13.96400
C         -2.70400        2.56800       13.54500
H         -2.43500        1.70200       13.94100
H         -3.21300        3.07300       14.22900
C         -3.59600        2.31600       12.33500
H         -4.42000        1.84800       12.62300
H         -3.12000        1.73400       11.68900
C         -3.96800        3.63100       11.65900
H         -4.52800        4.16600       12.27500
H         -4.50300        3.44100       10.84800
C         -2.73000        4.44300       11.26700
H         -3.01100        5.31100       10.88100
H         -2.21600        3.95200       10.57900
C         -0.91000        7.27200       11.37400
H         -1.42300        7.06700       10.54100
C          0.28200        8.14600       10.97100
H          0.82400        7.67200       10.29200
H          0.85500        8.30700       11.76300
C         -0.18600        9.49100       10.40000
H          0.60400       10.05700       10.20900
H         -0.66500        9.33500        9.54900
C         -1.10600       10.22000       11.36900
H         -1.41900       11.06200       10.95500
H         -0.60500       10.44900       12.19200
C         -2.30600        9.35500       11.73100
H         -2.85000        9.19200       10.92100
H         -2.87000        9.83500       12.38800
C         -1.86100        8.01400       12.32400
H         -2.65700        7.45100       12.49700
H         -1.40400        8.17100       13.18700
C          0.58000        5.94000       13.64900
H          0.11200        5.58100       14.44500
H          0.83700        6.88500       13.79500
C          2.02400        3.27100       13.99500
H          1.35300        2.69100       13.53600
C          3.38300        2.57800       13.79400
H          3.61000        2.56300       12.83100
H          4.08900        3.08500       14.26900
C          3.32900        1.14700       14.32900
H          4.22400        0.73400       14.25000
H          2.69900        0.61700       13.78100
C          2.88100        1.11200       15.79200
H          2.78900        0.17000       16.08400
H          3.57100        1.54000       16.35800
C          1.54800        1.83600       15.98200
H          1.30800        1.83400       16.94200
H          0.84000        1.35200       15.48800
C          1.62200        3.28200       15.48100
H          2.28900        3.78800       16.00800
H          0.74100        3.72200       15.58800
C          3.56700        5.76600       13.37100
H          4.29800        5.09600       13.23300
C          3.78000        6.86700       12.32800
H          3.70300        6.48300       11.41800
H          3.08200        7.56100       12.43000
C          5.16000        7.49900       12.50100
H          5.27100        8.23000       11.84400
H          5.85700        6.81900       12.32500
C          5.33900        8.05600       13.91400
H          6.25600        8.41800       14.01100
H          4.70100        8.80000       14.05800
C          5.10600        6.98100       14.96300
H          5.16400        7.38700       15.86500
H          5.81700        6.29500       14.89100
C          3.73600        6.30900       14.79700
H          3.65100        5.56500       15.44500
H          3.02000        6.96600       14.98700
Cl         1.65700        0.24600        8.11600
C          0.79100        1.39700        9.12300
H          1.38800        1.65000        9.87100
H          0.63900        2.21400        8.58400
Cl        -0.74400        0.92100        9.80800
C          0.88600        1.54000        8.98700
H          1.55700        2.21800        9.25300
H          0.20700        1.97900        8.41400
Cl         0.13600        0.86500       10.38400
