93
C:\Users\Javier\OneDrive - Universitat de Barcelona\Tesi\4 - Contribucions\Treballs\3-PhD\chapter_1\cif\pcp\HUJDUL.pcp.pdb
Ru         1.80300        4.33500        4.91100
P          0.88300        3.01100        6.55200
P          0.74600        5.66600        6.40900
C          3.50800        4.07100        6.09700
C          3.87700        4.71800        7.22200
H          3.30100        5.40100        7.48100
C          4.26200        2.98400        5.57100
C          4.79400        2.05200        5.07900
C          5.04400        4.52500        8.11400
C          6.24900        3.92200        7.73700
H          6.36500        3.62100        6.86400
C          7.28400        3.76700        8.67200
H          8.09900        3.41300        8.39900
C          7.11200        4.12700        9.97400
H          7.78400        3.95300       10.59400
C          5.95300        4.74500       10.37900
H          5.84700        5.03900       11.25500
C          4.94600        4.92000        9.43800
H          4.15600        5.32600        9.71500
C          5.34600        0.83700        4.53800
C          5.40900        0.67000        3.16400
H          5.14900        1.35500        2.59300
C          5.87500       -0.55900        2.64200
H          5.91100       -0.68500        1.72000
C          6.26700       -1.55100        3.47400
H          6.58300       -2.34900        3.11500
C          6.21200       -1.40600        4.80100
H          6.47200       -2.09900        5.36300
C          5.75100       -0.17900        5.33100
H          5.72700       -0.06800        6.25500
C          3.22800        4.49400        3.18900
H          4.14600        4.48600        3.33600
C          2.40600        5.64600        3.18900
H          2.67100        6.51200        3.39700
C          1.08400        5.22700        2.80800
C         -0.12500        5.93100        2.55600
H         -0.17800        6.84800        2.69600
C         -1.21000        5.22900        2.09900
H         -1.99700        5.68800        1.91500
C         -1.17000        3.84900        1.89900
H         -1.92300        3.41600        1.56600
C         -0.05400        3.11900        2.18100
H         -0.04400        2.19700        2.05900
C          1.10400        3.80200        2.67400
C          2.43700        3.37500        2.92900
H          2.73200        2.49200        2.92600
C          0.50000        4.39300        7.73900
H         -0.40800        4.36800        8.08200
H          1.13900        4.46700        8.46600
C         -0.72200        2.13700        6.38800
C         -1.37400        2.13900        5.16800
H         -0.96600        2.49900        4.41500
C         -2.65100        1.59200        5.08800
H         -3.11900        1.64700        4.28700
C         -3.22300        0.98600        6.14100
H         -4.05800        0.58800        6.05700
C         -2.56100        0.96200        7.33900
H         -2.96300        0.55700        8.07300
C         -1.31600        1.52500        7.47800
H         -0.87700        1.49500        8.29800
C          1.87500        1.80400        7.48300
C          2.06000        0.53000        6.91900
H          1.58300        0.29200        6.15500
C          2.93400       -0.37100        7.47400
H          3.05700       -1.20300        7.08000
C          3.63200       -0.04100        8.62500
H          4.22900       -0.64400        9.00500
C          3.43000        1.17700        9.18800
H          3.89000        1.39700        9.96400
C          2.57200        2.08600        8.64600
H          2.45300        2.90700        9.06300
C          1.41200        7.16800        7.21100
C          2.48000        7.82500        6.65100
H          2.88600        7.48200        5.88700
C          2.96400        9.01900        7.22700
H          3.68100        9.46500        6.83800
C          2.39200        9.50600        8.33100
H          2.72400       10.28500        8.71500
C          1.32800        8.87800        8.90000
H          0.92900        9.23300        9.66100
C          0.84000        7.69900        8.34000
H          0.11600        7.26800        8.73400
C         -0.93600        6.27900        5.96400
C         -2.03600        5.45900        5.98700
H         -1.95900        4.58300        6.29000
C         -3.27100        5.94500        5.55400
H         -4.01600        5.38800        5.57300
C         -3.39300        7.19700        5.11100
H         -4.21400        7.48900        4.78700
C         -2.33900        8.05200        5.12800
H         -2.45400        8.94200        4.88500
C         -1.07800        7.58300        5.51700
H         -0.33900        8.14500        5.47300
