131
C:\Users\Javier\OneDrive - Universitat de Barcelona\Tesi\4 - Contribucions\Treballs\3-PhD\chapter_1\cif\pcp\ILUKAB.pcp.pdb
Ru         1.23800       20.08400       13.18400
P          1.52000       21.57800       11.38400
P          2.53700       21.93300       13.88900
S          3.78000       23.82600       11.80400
N         -1.53000       21.30500       14.05800
N         -0.55800       17.95500       11.73500
N          1.07400       18.44400       15.88100
N          3.89500       18.48800       12.61100
C          2.69100       22.58900       12.25200
C          3.13100       24.96900       10.54500
H          2.38400       24.57100       10.07200
H          2.83800       25.79800       10.95300
C          4.25600       25.21500        9.61900
H          3.90400       25.37400        8.73000
H          4.72700       26.01700        9.89900
C          5.14300       24.16800        9.57000
H          6.04200       24.53300        9.55400
H          5.00900       23.69500        8.73300
C          5.06000       23.15400       10.71100
H          5.90900       23.08000       11.17400
H          4.80600       22.27900       10.37800
C         -0.50400       20.92700       13.71100
C         -2.85800       21.71000       14.53000
C         -3.07300       21.00300       15.86200
H         -3.10100       20.05400       15.72000
H         -3.90500       21.29200       16.24600
H         -2.35300       21.21700       16.45800
C         -3.87300       21.29900       13.50600
H         -3.89200       20.34100       13.44000
H         -3.63700       21.67400       12.65300
H         -4.74000       21.62000       13.76800
C         -2.81900       23.21700       14.67200
H         -2.16000       23.46200       15.32600
H         -3.68000       23.53600       14.94900
H         -2.59000       23.61100       13.82600
C          0.13600       18.70400       12.23200
C         -1.53400       16.97300       11.24700
C         -2.65400       17.77000       10.55500
H         -3.08100       18.34100       11.19700
H         -3.30000       17.16200       10.18900
H         -2.28000       18.30100        9.84900
C         -2.03700       16.21900       12.47500
H         -2.49200       16.82800       13.06000
H         -1.29400       15.82700       12.93600
H         -2.64400       15.52900       12.19900
C         -0.80700       16.04900       10.29200
H         -0.49700       16.55100        9.53500
H         -1.40700       15.35900        9.99600
H         -0.05800       15.65100       10.74100
C          1.15100       19.02300       14.91200
C          0.99700       17.69700       17.13200
C          2.41500       17.77500       17.78100
H          2.62700       18.69000       17.97600
H          3.06500       17.41600       17.17500
H          2.42100       17.26500       18.59500
C         -0.02600       18.41100       17.99400
H          0.29500       19.28800       18.21100
H         -0.16600       17.91100       18.80200
H         -0.85500       18.48200       17.51400
C          0.55400       16.29900       16.78400
H          1.22700       15.87500       16.24600
H         -0.27000       16.33700       16.29200
H          0.42400       15.79500       17.58800
C          2.93800       19.09900       12.78400
C          5.10200       17.71600       12.40000
C          4.77700       16.66000       11.35300
H          4.07800       16.08700       11.68200
H          5.55900       16.13500       11.17100
H          4.48400       17.08800       10.54500
C          5.44800       17.05300       13.73400
H          4.74200       16.45500       13.98700
H          5.55400       17.72600       14.41000
H          6.26800       16.55900       13.64400
C          6.18700       18.67300       11.97000
H          6.34300       19.31300       12.66900
H          5.91400       19.13000       11.17300
H          6.99500       18.18600       11.79900
C          2.08900       21.04000        9.73400
C          2.49700       19.73100        9.51000
H          2.48900       19.11600       10.20700
C          2.91400       19.33800        8.24500
H          3.17800       18.45900        8.10000
C          2.94000       20.23700        7.20500
H          3.23000       19.96400        6.36500
C          2.54100       21.52500        7.39900
H          2.57300       22.13600        6.69900
C          2.08500       21.92600        8.65900
H          1.77400       22.79300        8.78100
C          1.76000       23.14500       15.02200
C          1.20500       22.69600       16.20900
H          1.25000       21.79600       16.43500
C          0.57600       23.60500       17.06100
H          0.20700       23.30500       17.86100
C          0.49800       24.93400       16.73600
H          0.09000       25.53600       17.31600
C          1.02000       25.35800       15.56300
H          0.94300       26.25600       15.33100
C          1.66600       24.49500       14.69600
H          2.03400       24.81200       13.90400
C          0.02300       22.52600       10.98700
C         -0.15900       23.85300       11.37400
H          0.54100       24.31000       11.77800
C         -1.36800       24.49900       11.16900
H         -1.46800       25.39100       11.41000
C         -2.42800       23.80700       10.60500
H         -3.24800       24.22800       10.48400
C         -2.26800       22.48400       10.21700
H         -2.97700       22.02300        9.83200
C         -1.05200       21.85500       10.40700
H         -0.95100       20.97100       10.14100
C          4.16700       21.57100       14.64900
C          5.30300       22.20700       14.30500
H          5.26400       22.91200       13.69900
C          6.53500       21.83400       14.83100
H          7.30600       22.29800       14.59000
C          6.60800       20.79900       15.68900
H          7.43300       20.52000       16.01800
C          5.48800       20.17600       16.06900
H          5.53800       19.48500       16.69200
C          4.26100       20.53700       15.55200
H          3.49500       20.07900       15.81600
B          1.93100       14.60300       13.50800
B          9.33500       17.54000       14.33400
F          1.89400       14.49800       12.22500
F          2.88800       14.15200       14.09500
F          0.78000       14.19800       14.12000
F          1.91700       15.95500       13.67700
F          9.42600       18.03500       13.05600
F          8.42300       18.25300       15.02400
F          8.94500       16.25500       14.19600
F         10.56800       17.61700       14.94000
