208
C:\Users\Javier\OneDrive - Universitat de Barcelona\Tesi\4 - Contribucions\Treballs\3-PhD\chapter_1\cif\pcp\JINHOE.pcp.pdb
Ru         8.44500        4.92400        2.97100
Cl         6.96800        4.37000        1.08800
P          9.72200        6.05800        1.38700
P          9.92400        3.40300        1.96800
O          9.68000        6.97300        5.20500
C          8.77900        4.65400        5.14100
H          9.52700        4.18900        5.49700
C          8.71200        6.02800        4.86900
C          7.42100        6.40900        4.35300
C          6.65000        5.18200        4.33200
C          7.49500        4.06800        4.78300
C         10.96500        6.42300        5.56100
H         10.87300        5.86700        6.36200
H         11.59400        7.15300        5.74200
H         11.30500        5.87600        4.82100
C          7.05900        7.90400        4.23100
C          8.12400        8.69300        3.42700
H          9.00500        8.55800        3.83300
H          7.90100        9.64700        3.43700
H          8.13900        8.37200        2.50000
C          7.02900        8.49300        5.66700
H          6.36100        8.01800        6.20200
H          6.79800        9.44500        5.62700
H          7.91100        8.39000        6.08100
C          5.68300        8.22200        3.57600
H          5.65500        7.83900        2.67300
H          5.56400        9.19300        3.52300
H          4.96600        7.83300        4.11800
C          5.22100        5.07300        3.76600
H          5.17700        4.23400        3.24200
H          5.10600        5.81700        3.12200
C          3.95900        5.08700        4.72200
C          4.27000        5.67700        6.10500
H          3.47800        5.60000        6.68000
H          4.51600        6.62100        6.01200
H          5.01600        5.18500        6.51100
C          2.86200        5.94800        4.03600
H          2.74300        5.64900        3.10900
H          3.13200        6.89000        4.04100
H          2.01600        5.85000        4.52200
C          3.36300        3.67400        4.87200
H          3.99300        3.10400        5.36000
H          3.19700        3.29300        3.98500
H          2.52000        3.72700        5.36800
C          7.18700        2.59600        5.12500
C          6.53700        2.52800        6.52500
H          7.12700        2.95600        7.18200
H          6.39700        1.59000        6.77600
H          5.67400        2.99300        6.50900
C          6.32400        1.89100        4.06000
H          5.45000        2.33000        4.00400
H          6.20100        0.95000        4.31100
H          6.77200        1.94100        3.18900
C          8.50600        1.80300        5.23200
H          9.01300        1.89800        4.39900
H          8.30500        0.85500        5.38700
H          9.03500        2.15000        5.98000
C          9.02700        6.98800       -0.05900
C          9.83700        7.27700       -1.16400
H         10.75100        7.02200       -1.15600
C          9.31800        7.92600       -2.26800
H          9.87900        8.12300       -3.00700
C          7.97100        8.29600       -2.30000
H          7.61100        8.74000       -3.05800
C          7.16700        8.00900       -1.21000
H          6.25000        8.26100       -1.22300
C          7.67900        7.35600       -0.09100
H          7.11400        7.16100        0.64600
C         11.15800        7.14200        1.80500
C         12.30800        6.60300        2.39300
H         12.37300        5.66500        2.52700
C         13.37100        7.44500        2.78300
H         14.16100        7.07100        3.15700
C         13.26200        8.81900        2.62300
H         13.96300        9.39000        2.91100
C         12.13000        9.35300        2.04300
H         12.05600       10.29400        1.93100
C         11.09700        8.52500        1.62100
H         10.33600        8.90600        1.20200
C         10.44600        4.54300        0.60900
H         10.02500        4.32100       -0.25900
H         11.42900        4.59600        0.51000
C         11.52800        2.77800        2.67600
C         12.44300        2.16600        1.80300
H         12.27900        2.16800        0.86800
C         13.59200        1.55600        2.30500
H         14.20800        1.13600        1.71500
C         13.83300        1.56600        3.67200
H         14.60800        1.13900        4.01700
C         12.95600        2.18900        4.53800
H         13.13300        2.20600        5.47000
C         11.80600        2.79500        4.03000
H         11.20700        3.22800        4.62300
C          9.35100        1.83700        1.17800
C          8.64800        1.84200       -0.04000
H          8.51400        2.66400       -0.49400
C          8.14500        0.66400       -0.60100
H          7.68100        0.68600       -1.42900
C          8.33300       -0.53400        0.06700
H          7.99500       -1.34100       -0.30400
C          9.01500       -0.56100        1.27900
H          9.13500       -1.38200        1.73900
C          9.51900        0.61900        1.81600
H          9.99100        0.58900        2.64100
Ru        12.11300        3.33400       10.01400
Cl        11.17700        3.29200        7.73500
P          9.90900        3.17100       10.75600
P         11.45800        1.08200       10.00200
O         12.60000        5.09800       12.75000
C         13.85800        3.48000       11.35600
H         14.02800        2.81000       12.01100
C         13.09500        4.64900       11.55400
C         12.97000        5.38400       10.32300
C         13.79700        4.65800        9.34200
C         14.34000        3.47300        9.99700
C         12.82400        4.25100       13.89400
H         12.39000        3.38500       13.74900
H         12.44800        4.67600       14.69200
H         13.78800        4.11600       14.01600
C         12.36000        6.80100       10.29300
C         11.02700        6.85700       11.07600
H         10.64900        7.75800       11.01200
H         11.19100        6.63800       12.01900
H         10.39700        6.21100       10.69700
C         13.36300        7.72700       11.07800
H         14.23600        7.71600       10.63200
H         13.46100        7.39700       11.99700
H         13.01700        8.64300       11.09700
C         12.09200        7.38500        8.92900
H         11.52900        6.77200        8.41300
H         12.94300        7.51800        8.45800
H         11.63700        8.24600        9.02500
C         13.92200        4.99700        7.87400
H         13.10200        5.49400        7.62800
H         13.89100        4.13900        7.38200
C         15.13900        5.81200        7.27800
C         15.85300        6.68400        8.33800
H         16.61300        7.14300        7.92400
H         16.17100        6.11400        9.06700
H         15.22200        7.34600        8.69300
C         14.59700        6.74000        6.17500
H         15.34600        7.20200        5.74000
H         13.99100        7.40100        6.57000
H         14.11000        6.20800        5.51000
C         16.17200        4.90400        6.56800
H         15.71800        4.35700        5.89400
H         16.60200        4.32000        7.22700
H         16.85100        5.46000        6.13200
C         15.36200        2.41900        9.54000
C         15.36500        1.20000       10.45100
H         15.63400        1.46800       11.35400
H         16.00000        0.53700       10.10600
H         14.46800        0.81000       10.47800
C         15.08500        1.91100        8.09300
H         15.63700        1.11900        7.91400
H         15.31200        2.61700        7.45200
H         14.13800        1.67800        8.00400
C         16.78900        3.04600        9.64200
H         16.99600        3.23300       10.58200
H         16.81300        3.88200        9.13100
H         17.44800        2.42100        9.27800
C          8.45800        4.14900       10.16800
C          7.19600        3.97800       10.75800
H          7.09500        3.35900       11.47400
C          6.08700        4.69700       10.32000
H          5.24000        4.56600       10.73100
C          6.21800        5.60500        9.28100
H          5.47200        6.12000        8.99800
C          7.44900        5.76000        8.65300
H          7.53600        6.35400        7.91900
C          8.55300        5.04000        9.10700
H          9.39300        5.16300        8.67700
C          9.55800        3.09400       12.56100
C          9.51200        1.89400       13.28700
H          9.59900        1.06200       12.83600
C          9.33900        1.92700       14.66500
H          9.31800        1.11000       15.14900
C          9.20200        3.11500       15.34400
H          9.08400        3.11700       16.28700
C          9.23800        4.31200       14.63300
H          9.13600        5.13800       15.09300
C          9.42300        4.30200       13.26300
H          9.46000        5.12600       12.78800
C          9.63900        1.45900       10.07200
H          9.14400        0.86600       10.69400
H          9.20700        1.46100        9.18000
C         11.68400       -0.03400       11.44200
C         10.95700       -1.23200       11.53800
H         10.42300       -1.52000       10.80600
C         11.00900       -2.00300       12.69700
H         10.49500       -2.79900       12.76100
C         11.81300       -1.60400       13.75700
H         11.86100       -2.13400       14.54500
C         12.54100       -0.44000       13.66700
H         13.09600       -0.17400       14.38800
C         12.47200        0.34100       12.53900
H         12.97000        1.15000       12.50200
C         11.75700       -0.08000        8.59700
C         12.88700       -0.90300        8.62400
H         13.43500       -0.92500        9.39900
C         13.21800       -1.69200        7.52100
H         13.99400       -2.24200        7.54500
C         12.41600       -1.67400        6.38100
H         12.64900       -2.19500        5.61900
C         11.28100       -0.89400        6.37000
H         10.70700       -0.90900        5.61400
C         10.97100       -0.08200        7.46000
H         10.20600        0.48100        7.41700
