104
C:\Users\Javier\OneDrive - Universitat de Barcelona\Tesi\4 - Contribucions\Treballs\3-PhD\chapter_1\cif\pcp\JINJAS.pcp.pdb
Ru         1.97100        2.75900        4.09000
H          3.20200        1.78300        4.05100
P          1.44800        1.86800        6.09300
P          1.06800        0.71400        3.72500
O          0.83700        5.67500        5.14200
C          2.94400        4.75500        4.28600
H          3.49300        4.97200        5.03000
C          1.59100        4.98000        4.19100
C          1.06800        4.53000        2.95200
C          2.22400        4.01500        2.19700
C          3.38200        4.13600        3.06700
C          1.43600        5.74900        6.45000
H          1.56400        4.84400        6.80200
H          0.84700        6.25300        7.04900
H          2.30200        6.20200        6.38700
C         -0.42100        4.85400        2.58400
C         -0.59700        6.38700        2.51300
H          0.02500        6.75500        1.85100
H         -0.41100        6.78000        3.39000
H         -1.51700        6.59800        2.24900
C         -0.90600        4.25600        1.25300
H         -0.38700        4.63800        0.51600
H         -1.85500        4.46800        1.12800
H         -0.78800        3.28400        1.27000
C         -1.37300        4.28200        3.66300
H         -2.27600        4.63300        3.52200
H         -1.05600        4.54600        4.55300
H         -1.38900        3.30400        3.59900
C          2.16000        3.46700        0.77300
H          1.26200        3.06800        0.65400
H          2.81300        2.72400        0.71800
C          2.41700        4.39300       -0.45800
C          2.14000        5.86700       -0.15100
H          2.62700        6.12900        0.65900
H          1.17900        5.99900       -0.01000
H          2.43900        6.41800       -0.90500
C          1.48800        3.92500       -1.59900
H          1.66700        4.45300       -2.40400
H          0.55400        4.04600       -1.32900
H          1.65300        2.97900       -1.78700
C          3.84000        4.28900       -0.99400
H          3.92800        4.84100       -1.80000
H          4.03900        3.35500       -1.21600
H          4.47000        4.60400       -0.31300
C          4.89700        3.94400        2.82300
C          5.46200        5.29900        2.32900
H          4.97900        5.57900        1.52300
H          6.41400        5.20000        2.12200
H          5.34800        5.97400        3.03000
C          5.62100        3.63300        4.15000
H          5.55300        4.40500        4.74800
H          6.56500        3.44200        3.97000
H          5.20400        2.85300        4.57500
C          5.28800        2.82200        1.85500
H          5.02900        1.95700        2.23500
H          6.25800        2.83800        1.71200
H          4.82900        2.95400        1.00000
C          0.04600        2.40800        7.15000
C          0.21200        2.84300        8.47100
H          1.07600        2.81900        8.86700
C         -0.86600        3.31100        9.20900
H         -0.73400        3.61700       10.09700
C         -2.13500        3.33200        8.64800
H         -2.87300        3.64800        9.15800
C         -2.32600        2.89400        7.35300
H         -3.19500        2.90600        6.96900
C         -1.23900        2.43500        6.60600
H         -1.37600        2.13700        5.71500
C          2.75200        1.62800        7.35000
C          2.78500        0.52400        8.20100
H          2.11000       -0.14100        8.13400
C          3.79600        0.38600        9.15200
H          3.82000       -0.37600        9.71800
C          4.75900        1.36300        9.26100
H          5.43200        1.28300        9.92700
C          4.75900        2.45100        8.42200
H          5.43300        3.11700        8.50100
C          3.76800        2.56900        7.45600
H          3.78400        3.30600        6.85800
C          0.95600        0.17600        5.49800
H          1.60800       -0.52900        5.73600
H          0.04100       -0.08500        5.77200
C          2.00500       -0.66000        2.94800
C          3.25200       -0.44700        2.39800
H          3.59300        0.43900        2.35800
C          4.02700       -1.48900        1.89900
H          4.87200       -1.30700        1.50400
C          3.56900       -2.78200        1.97600
H          4.10100       -3.50300        1.65600
C          2.32000       -3.02300        2.52600
H          1.99500       -3.91500        2.58600
C          1.54300       -1.97800        2.99000
H          0.68100       -2.15900        3.34300
C         -0.56800        0.38600        2.95100
C         -0.65900        0.63100        1.59000
H          0.11200        0.91900        1.11600
C         -1.85500        0.46500        0.90900
H         -1.90000        0.66700       -0.01800
C         -2.97000        0.01300        1.55900
H         -3.78300       -0.11600        1.08500
C         -2.90200       -0.25300        2.91800
H         -3.67400       -0.56500        3.37600
C         -1.70600       -0.06700        3.62400
H         -1.66800       -0.24700        4.55700
