73
C:\Users\Javier\OneDrive - Universitat de Barcelona\Tesi\4 - Contribucions\Treballs\3-PhD\chapter_1\cif\pcp\JOJSIK.pcp.pdb
Ru         1.30300        3.17300       11.96000
Cl         0.58000        5.38800       12.49300
Cl         3.48500        4.09400       11.35500
P          1.49900        1.29600       10.61600
P         -0.79800        2.15000       11.95700
C          1.82500        2.35000       13.54200
H          1.29800        1.72000       13.96900
C          2.97200        2.74500       14.30300
H          3.54400        3.32900       13.90700
C          3.27000        2.31500       15.55600
C          2.40600        1.42900       16.39500
H          2.09300        1.92600       17.17900
H          2.92400        0.65000       16.68700
H          1.63500        1.12900       15.86900
C          4.52900        2.77100       16.21700
H          5.10200        1.99500       16.39700
H          4.31200        3.21800       17.06100
H          5.00100        3.39500       15.62700
C         -0.29300        0.80500       10.77200
H         -0.77700        0.86300        9.90900
H         -0.40400       -0.09900       11.16000
C          2.56000       -0.21300       11.03800
C          4.03000        0.20400       11.18600
H          4.39000        0.44900       10.30900
H          4.54600       -0.54400       11.55400
H          4.09200        0.97200       11.79200
C          2.40200       -1.34300       10.01500
H          2.73200       -1.04100        9.14300
H          1.45500       -1.58600        9.94000
H          2.91800       -2.12400       10.30600
C          2.13600       -0.77700       12.39400
H          1.19900       -1.06000       12.35100
H          2.23800       -0.08500       13.08100
H          2.70000       -1.54600       12.61900
C          1.78900        1.76800        8.79000
C          3.26300        1.68100        8.39700
H          3.55100        0.74500        8.40600
H          3.80200        2.19600        9.03400
H          3.38400        2.05000        7.49600
C          0.94100        0.91500        7.84400
H         -0.00800        1.12500        7.97800
H          1.09600       -0.03400        8.03000
H          1.18900        1.11200        6.91600
C          1.41300        3.23300        8.59000
H          0.48700        3.37500        8.87800
H          1.49800        3.46600        7.64100
H          2.01100        3.80000        9.12000
C         -1.58600        1.32900       13.50800
C         -1.45200        2.34600       14.66200
H         -1.89900        3.18100       14.41500
H         -0.50300        2.52100       14.83500
H         -1.86900        1.97900       15.47100
C         -3.05900        0.90100       13.35400
H         -3.13600        0.24800       12.62900
H         -3.60700        1.68600       13.14700
H         -3.37100        0.49900       14.19200
C         -0.86200        0.03100       13.87700
H         -1.00900       -0.63700       13.17500
H         -1.21100       -0.30700       14.72800
H          0.09900        0.20600       13.96400
C         -2.21200        3.09700       11.10600
C         -1.64900        3.96400        9.97600
H         -1.33600        3.38800        9.24800
H         -0.90000        4.49700       10.31600
H         -2.35100        4.56100        9.64200
C         -2.86000        4.06400       12.10700
H         -3.27400        3.55200       12.83300
H         -3.54400        4.59700       11.65000
H         -2.17400        4.65900       12.47600
C         -3.25800        2.17000       10.46600
H         -3.55600        1.50900       11.12400
H         -2.85900        1.71000        9.69700
H         -4.02500        2.70100       10.16600
