83
C:\Users\Javier\OneDrive - Universitat de Barcelona\Tesi\4 - Contribucions\Treballs\3-PhD\chapter_1\cif\pcp\JOLWAI.pcp.pdb
Ru        -1.49900        0.00000        1.33400
C         -1.50700       -1.77400        0.01600
C         -2.85100       -1.23400        0.05500
C         -3.31700       -1.28700        1.35100
C         -2.26200       -1.92100        2.15300
C         -1.21400       -2.20400        1.31200
C         -0.79800       -2.01100       -1.27800
C         -3.60500       -0.78500       -1.15400
C         -4.69200       -0.97800        1.82900
C         -2.46200       -2.28600        3.58600
C         -0.38300       -3.04300        1.61300
C         -0.38000        1.95900        3.48500
P         -2.05300        1.70300        2.77400
C         -2.57700        3.30600        2.10000
C         -2.46000        4.45000        2.83700
C         -2.90500        5.68100        2.35000
C         -3.45900        5.76100        1.13800
C         -3.59400        4.64000        0.38800
C         -3.17000        3.42000        0.84900
C         -3.22300        1.53700        4.17700
C         -4.54200        1.78000        3.93600
C         -5.48600        1.65500        4.94700
C         -5.07000        1.24300        6.19400
C         -3.78600        1.01300        6.42700
C         -2.82900        1.14000        5.41000
P          0.40600        0.67900        2.43000
C          1.74700        1.53700        1.55300
C          2.60800        2.36700        2.25800
C          3.61900        3.01300        1.59600
C          3.79700        2.83700        0.23900
C          2.96900        2.00400       -0.47000
C          1.94500        1.34800        0.18400
C          1.32400       -0.45500        3.48100
C          0.81300       -0.85200        4.72800
C          1.48100       -1.76800        5.48000
C          2.63100       -2.34300        5.04300
C          3.13900       -1.97800        3.80800
C          2.49100       -1.02200        3.08200
B         -5.74800       -5.21500        3.19300
F         -4.76300       -6.12100        3.15000
F         -6.60000       -5.28800        2.20300
F         -6.39700       -5.26700        4.31100
F         -5.08900       -4.09600        2.92200
F         -5.92900       -4.46500        2.20700
F         -5.49900       -4.34500        4.23300
F         -6.83300       -5.83400        3.46600
H         -0.03800        2.83100        3.33300
H         -0.33300        1.75900        4.41300
H         -2.06700        4.40600        3.70100
H         -2.81400        6.46300        2.88200
H         -3.75800        6.59900        0.80300
H         -3.98900        4.70100       -0.47300
H         -3.28200        2.64700        0.30900
H         -4.82000        2.03700        3.06400
H         -6.40100        1.85100        4.78300
H         -5.70600        1.12500        6.89100
H         -3.50900        0.75500        7.29800
H         -1.91400        0.95300        5.58400
H          2.49900        2.48500        3.19400
H          4.20100        3.58900        2.07600
H          4.49900        3.29700       -0.20800
H          3.10000        1.88000       -1.40200
H          1.37200        0.76500       -0.30000
H         -0.00000       -0.47900        5.04700
H          1.13400       -2.01200        6.33100
H          3.08200       -2.98600        5.57700
H          3.92600       -2.38700        3.47100
H          2.87500       -0.74300        2.25900
H         -1.28300       -1.60500       -1.98500
H         -0.73200       -2.94500       -1.43800
H          0.07400       -1.63700       -1.23800
H         -2.99200       -0.53500       -1.83600
H         -4.14900       -0.03800       -0.93200
H         -4.15500       -1.49300       -1.46900
H         -4.65400       -0.64100        2.71600
H         -5.22000       -1.76800        1.81500
H         -5.08700       -0.32700        1.26100
H         -1.65300       -2.15100        4.06500
H         -2.71800       -3.19900        3.65100
H         -3.14500       -1.74100        3.96100
H         -0.14500       -3.49100        2.44200
H          0.75400       -2.49300        1.66900
H          0.10200       -3.68600        0.92300
