82
C:\Users\Javier\OneDrive - Universitat de Barcelona\Tesi\4 - Contribucions\Treballs\3-PhD\chapter_1\cif\pcp\JOLWAI01.pcp.pdb
Ru        -1.51000        0.00000        1.20100
C         -1.61000       -1.75100       -0.16500
C         -2.92900       -1.20200       -0.03700
C         -3.32600       -1.30900        1.32400
C         -2.27400       -1.90500        2.03100
C         -1.20400       -2.23700        1.09100
C         -0.86800       -1.95900       -1.45600
C         -3.79300       -0.73700       -1.15600
C         -4.68700       -0.94900        1.83600
C         -2.39600       -2.40400        3.42000
C          0.04400       -3.03500        1.38400
C         -0.41800        1.97500        3.37800
P         -2.07300        1.72400        2.63900
C         -2.58900        3.31000        1.92100
C         -2.48600        4.49500        2.67100
C         -2.93500        5.70100        2.15000
C         -3.48200        5.75600        0.87600
C         -3.60100        4.58000        0.11400
C         -3.15900        3.36300        0.65400
C         -3.27000        1.56300        4.01100
C         -4.62400        1.83200        3.76600
C         -5.55600        1.73000        4.77300
C         -5.19100        1.33300        6.04700
C         -3.87700        1.05200        6.28600
C         -2.91400        1.17200        5.28100
P          0.38300        0.68000        2.31000
C          1.73100        1.53600        1.43300
C          2.59100        2.38600        2.12600
C          3.62000        3.03800        1.47900
C          3.83600        2.82700        0.09600
C          3.00500        1.95600       -0.59300
C          1.95100        1.30900        0.07400
C          1.27800       -0.45300        3.40600
C          0.65200       -0.94200        4.55400
C          1.28600       -1.89700        5.36100
C          2.54200       -2.37100        5.00700
C          3.19200       -1.86600        3.87500
C          2.55400       -0.92700        3.08300
B         -5.85600       -5.09700        3.25200
F         -4.84600       -6.07500        3.19400
F         -6.94800       -5.40600        2.34300
F         -6.43400       -5.00700        4.43600
F         -5.31000       -3.91300        2.70200
H         -2.05400        4.44600        3.69200
H         -2.81800        6.63300        2.73900
H         -3.81300        6.71500        0.44300
H         -4.06900        4.61600       -0.87600
H         -3.28800        2.47000        0.06100
H         -4.91900        2.24200        2.80900
H         -6.61100        1.93900        4.61400
H         -5.98900        1.29400        6.80800
H         -3.56100        0.74500        7.31800
H         -1.89700        0.95700        5.47900
H          2.43800        2.57400        3.21000
H          4.27400        3.75500        2.01400
H          4.67200        3.33700       -0.39100
H          3.19600        1.78100       -1.65500
H          1.32100        0.61500       -0.47700
H         -0.30200       -0.57600        4.83400
H          0.73900       -2.30600        6.23600
H          3.04400       -3.08100        5.61100
H          4.19000       -2.24200        3.61600
H          3.07900       -0.52200        2.19500
H         -1.73600        1.21900        0.10100
H         -0.73600        0.82300       -0.02600
H         -1.11900       -2.90700       -1.90300
H          0.19300       -1.88500       -1.28400
H         -1.08000       -1.15400       -2.23400
H         -4.38200       -1.54200       -1.47800
H         -4.47800        0.15500       -0.82800
H         -3.22300       -0.37800       -2.03800
H         -5.30200       -1.88800        1.83400
H         -4.63800       -0.67900        2.89900
H         -5.16700       -0.12900        1.27300
H         -3.02500       -3.25400        3.49500
H         -1.33900       -2.63300        3.86000
H         -2.82400       -1.70500        4.06800
H          0.35500       -2.96200        2.29700
H          0.88200       -2.72500        0.69500
H         -0.23400       -4.02800        1.13800
H         -0.33600        1.72100        4.46400
H          0.00400        2.97400        3.19100
