70
C:\Users\Javier\OneDrive - Universitat de Barcelona\Tesi\4 - Contribucions\Treballs\3-PhD\chapter_1\cif\pcp\KAYNIH.pcp.pdb
Pd         1.62600        2.79300        4.23600
P          3.77300        2.85800        4.79200
P          2.73500        3.46900        2.42100
F          0.25400        1.79000        8.70500
F         -0.53600       -0.11600        8.11900
F         -1.54500        1.69200        7.54000
F         -1.47500        0.45300        7.53600
F          0.32600        0.55100        8.70200
F         -0.68000        2.35900        8.12600
F         -2.90000        2.20100        2.91300
F         -2.60900        4.31100        3.18300
F         -2.65600        3.48000        1.20500
F         -2.54400        4.46100        1.95500
F         -2.78100        3.18200        3.66300
F         -2.83400        2.35000        1.68400
O          0.81000        2.38800        6.10400
O          0.86300        0.14400        5.88900
O         -0.33500        2.95200        3.63900
O         -0.25200        2.61000        1.47300
C          4.28200        3.84700        3.34600
C          0.52400        1.16900        6.41800
C         -0.35500        1.14200        7.72200
C         -0.79400        2.89500        2.49400
C         -2.24700        3.26200        2.45000
C          4.59500        1.22300        4.77700
C          5.89800        1.11500        5.26500
C          6.49500       -0.12200        5.19200
C          5.79900       -1.21000        4.64600
C          4.55800       -1.11500        4.20200
C          3.94000        0.09500        4.25600
C          4.26900        3.73200        6.26300
C          3.57000        3.54800        7.41800
C          4.00000        4.10500        8.57600
C          5.15000        4.92000        8.56700
C          5.81800        5.12400        7.40800
C          5.37800        4.52600        6.24400
C          2.18300        4.98800        1.66800
C          1.48600        5.92600        2.47800
C          1.09300        7.14900        1.96500
C          1.40700        7.46200        0.66800
C          2.04100        6.57900       -0.13200
C          2.41300        5.34200        0.36200
C          3.17000        2.28300        1.12800
C          2.44000        1.18300        0.91200
C          2.78300        0.31300       -0.09800
C          3.86700        0.62500       -0.91700
C          4.56600        1.71300       -0.72800
C          4.27500        2.52800        0.33300
H          6.35200        1.86500        5.63300
H          7.38100       -0.23400        5.51300
H          6.22900       -2.05700        4.59400
H          4.10400       -1.87100        3.85000
H          3.04700        0.17600        3.93900
H          2.76800        3.03400        7.41000
H          3.53000        3.94800        9.38700
H          5.44900        5.33200        9.36800
H          6.59800        5.67100        7.38400
H          5.84800        4.67200        5.42900
H          1.29700        5.70400        3.38200
H          0.60900        7.75700        2.50700
H          1.16700        8.31600        0.32900
H          2.22600        6.81200       -1.03500
H          2.83900        4.71200       -0.21500
H          1.67600        1.00200        1.45400
H          2.28100       -0.47900       -0.23800
H          4.09800        0.02700       -1.62000
H          5.27500        1.94000       -1.32300
H          4.83700        3.26800        0.52500
H          4.39600        4.76900        3.53900
H          5.06900        3.51600        2.92200
