117
C:\Users\Javier\OneDrive - Universitat de Barcelona\Tesi\4 - Contribucions\Treballs\3-PhD\chapter_1\cif\pcp\KUDBUG.pcp.pdb
Ru         2.40700        1.16700        1.70500
Cl         0.54100        2.54500        1.42100
P          2.18100        1.26300        4.03200
P          3.67100        2.91700        2.57300
C          2.41600        0.18900       -0.31700
C          1.88700       -0.72800        0.56000
C          2.86600       -0.97700        1.50000
C          4.00100       -0.22600        1.19600
C          3.70500        0.50100        0.04400
C          2.75000        3.00900        4.13800
C          3.30700        0.26200        5.12100
C          3.71400        0.92600        6.41100
C          4.72400        0.07700        7.17800
C          4.18400       -1.32200        7.41400
C          3.74800       -1.98000        6.16800
C          2.75700       -1.13000        5.39000
C          0.43800        1.20700        4.59200
C         -0.31800        0.00000        4.09000
C         -1.79900        0.12700        4.40100
C         -2.03900        0.41100        5.84000
C         -1.31100        1.58400        6.35700
C          0.18300        1.48200        6.06300
C          5.42500        2.54500        2.98600
C          6.35400        2.56500        1.76900
C          7.75200        2.14200        2.08800
C          8.32200        2.97400        3.18400
C          7.43200        2.94100        4.41100
C          6.00300        3.38500        4.07400
C          3.68800        4.57300        1.74200
C          2.58500        5.51200        2.15700
C          2.72500        6.84900        1.47300
C          2.75400        6.71500       -0.01500
C          3.85000        5.76500       -0.46100
C          3.71700        4.40600        0.22500
S          2.80800        2.20800       15.80600
O          3.58100        0.98800       15.75400
O          1.64300        2.13800       16.61900
O          2.63600        2.82000       14.52900
C          3.78300        3.29500       16.63100
F          5.02400        3.48200       16.11500
F          4.06800        2.94900       17.93000
F          3.31600        4.55500       16.75200
C          9.41100        1.51600        9.70500
C          9.84800        2.57800       10.43300
C          9.21200        3.77400       10.35300
C          8.14500        3.90200        9.49900
C          7.71300        2.79500        8.73900
C          8.39000        1.66100        8.88900
C         -2.79600        3.71900       16.89000
C         -3.79000        3.95300       15.93300
C         -3.38200        3.97700       14.60000
C         -2.09200        3.76600       14.28500
C         -1.18700        3.55400       15.20400
C         -1.55900        3.51000       16.48800
H          1.95700        0.55200       -1.06500
H          1.01900       -1.11100        0.52300
H          2.78000       -1.56800        2.23600
H          4.81700       -0.20900        1.68100
H          4.28600        1.10000       -0.40800
H          3.30300        3.17800        4.89000
H          2.03800        3.63800        4.11900
H          4.10300        0.18700        4.60700
H          2.94300        1.05300        6.94900
H          4.10500        1.76800        6.21300
H          4.90300        0.48600        8.01400
H          5.52900        0.01800        6.67400
H          3.44300       -1.26500        8.00500
H          4.86700       -1.84700        7.81100
H          3.33500       -2.80600        6.38600
H          4.50800       -2.14000        5.62200
H          2.57100       -1.55300        4.55900
H          1.95400       -1.05100        5.89200
H          0.07100        1.96800        4.16100
H          0.02300       -0.77900        4.51100
H         -0.20300       -0.07200        3.15000
H         -2.23100       -0.68800        4.17300
H         -2.16300        0.83200        3.88200
H         -1.76000       -0.34800        6.34000
H         -2.96300        0.55400        5.96300
H         -1.43900        1.63900        7.29500
H         -1.65500        2.36700        5.94300
H          0.60200        2.29800        6.30100
H          0.55200        0.77200        6.57800
H          5.37600        1.65600        3.31700
H          6.37900        3.44700        1.41900
H          6.00300        1.97500        1.10900
H          8.29100        2.23500        1.31100
H          7.74700        1.23000        2.35900
H          8.40000        3.87100        2.88200
H          9.18000        2.64100        3.41300
H          7.78900        3.52400        5.06900
H          7.40900        2.05400        4.75100
H          5.46200        3.30100        4.84900
H          6.01700        4.29100        3.79200
H          4.48500        4.99100        2.04200
H          2.62100        5.63700        3.09600
H          1.74700        5.12900        1.92100
H          3.53400        7.25600        1.75700
H          1.99000        7.39700        1.71700
H          2.90700        7.56800       -0.40000
H          1.91400        6.37800       -0.31100
H          4.69300        6.14100       -0.24000
H          3.79100        5.64400       -1.40200
H          2.91000        3.99000       -0.05800
H          4.45700        3.86200       -0.01300
H          9.84300        0.67100        9.78000
H         10.60300        2.48300       11.00200
H          9.49600        4.50900       10.87700
H          7.70000        4.73600        9.41600
H          6.97700        2.85500        8.14500
H          8.11300        0.91000        8.37800
H         -3.01100        3.70800       17.81500
H         -4.69100        4.09100       16.17900
H         -4.01700        4.14000       13.91400
H         -1.83000        3.77200       13.37100
H         -0.28300        3.42900       14.96000
H         -0.89700        3.31900       17.14000
