156
C:\Users\Javier\OneDrive - Universitat de Barcelona\Tesi\4 - Contribucions\Treballs\3-PhD\chapter_1\cif\pcp\LEHHIP.pcp.pdb
Ru         9.26300        0.91300       44.56400
Cl         7.78000       -0.70000       43.49800
Cl        11.03600       -0.74100       44.72100
Cl         8.45600        0.32100       46.68500
P         10.32600        2.66100       45.69700
P          7.73400        2.66900       44.75500
N          9.82500        1.46700       43.04000
O         10.18700        1.89600       42.04800
C          8.80900        3.68600       45.85000
C         11.54500        3.45200       44.66300
C         11.42200        4.76400       44.16200
C         12.38000        5.29500       43.29200
C         13.41100        4.53300       42.90600
C         13.57700        3.25700       43.36400
C         12.62400        2.68900       44.26300
C         11.03400        2.44500       47.34000
C         11.59600        1.25200       47.72300
C         12.13000        1.12400       48.98900
C         12.07300        2.21600       49.86200
C         11.52100        3.41200       49.48400
C         10.99700        3.51300       48.23500
C          7.40500        3.50700       43.19500
C          7.86500        4.78400       42.92100
C          7.54600        5.37100       41.70100
C          6.75900        4.72000       40.77800
C          6.30300        3.44100       41.07000
C          6.63600        2.82200       42.27100
C          6.12900        2.44400       45.55500
C          5.42900        1.27300       45.43900
C          4.16900        1.17100       45.98000
C          3.63100        2.20300       46.64400
C          4.32400        3.36700       46.80600
C          5.59500        3.53300       46.23300
H          8.93300        4.57700       45.51100
H          8.48100        3.72400       46.74900
H         10.66900        5.30000       44.42200
H         12.29900        6.19700       42.97500
H         14.05100        4.89200       42.28900
H         14.33400        2.74200       43.07900
H         12.73000        1.79000       44.58000
H         11.61900        0.50900       47.11000
H         12.53000        0.29700       49.26700
H         12.43000        2.12600       50.74600
H         11.50300        4.15900       50.08600
H         10.59000        4.33700       47.96100
H          8.39700        5.25700       43.55900
H          7.87800        6.24700       41.49900
H          6.53000        5.14300       39.94400
H          5.75000        2.97800       40.43500
H          6.33300        1.92800       42.45500
H          5.81700        0.52500       44.97700
H          3.67100        0.35400       45.88300
H          2.74600        2.12300       47.00500
H          3.93700        4.08000       47.31900
H          6.07200        4.36100       46.30500
Ru        14.39700        1.53100       36.08000
Cl        15.67600        3.32000       37.12800
P         12.91300        1.39300       37.88600
P         12.70200        0.07000       35.50200
C         11.84000        0.09300       37.13300
C         11.36400        0.53500       34.34800
C         11.25200       -0.07300       33.12900
C         10.33800        0.28900       32.21900
C          9.51400        1.32300       32.46800
C          9.57700        1.94600       33.67000
C         10.53600        1.55000       34.63700
C         12.86600       -1.69300       35.11300
C         11.91100       -2.55500       35.50300
C         12.03700       -3.86300       35.30100
C         13.13600       -4.32200       34.64000
C         14.13100       -3.48200       34.21500
C         13.96300       -2.11400       34.44200
C         13.39300        0.74500       39.50400
C         12.51900       -0.04700       40.25400
C         12.87300       -0.51600       41.51400
C         14.09200       -0.20500       42.01900
C         14.97600        0.56400       41.29700
C         14.61700        1.03600       40.05200
C         11.84300        2.71700       38.34200
C         10.51600        2.61600       38.64500
C          9.76100        3.63400       39.11100
C         10.33300        4.83600       39.23300
C         11.62900        5.04900       38.88300
C         12.36100        3.96900       38.47600
H         10.92200        0.36000       37.06500
H         11.89400       -0.74700       37.59200
H         11.85100       -0.76000       32.90500
H         10.26600       -0.19900       31.39000
H          8.89000        1.62000       31.79700
H          8.96900        2.66900       33.86800
H         10.58900        1.99500       35.48500
H         11.12300       -2.22200       35.93900
H         11.36600       -4.46900       35.60400
H         13.22600       -5.27100       34.47100
H         14.91800       -3.80800       33.77100
H         14.61400       -1.48100       34.12800
H         11.65700       -0.26900       39.89400
H         12.26000       -1.05400       42.01900
H         14.34000       -0.52500       42.88800
H         15.84000        0.77100       41.65800
H         15.23600        1.57700       39.55400
H         10.09200        1.75500       38.52300
H          8.83800        3.50100       39.33400
H          9.81700        5.57500       39.58000
H         12.02000        5.92300       38.91900
H         13.29000        4.09200       38.27000
Cl        13.11800        3.32000       35.03200
P         15.88100        1.39300       34.27400
C         16.95400        0.09300       35.02600
P         16.09200        0.07000       36.65800
C         17.43000        0.53500       37.81200
C         17.54200       -0.07300       39.03100
C         18.45500        0.28900       39.94000
C         19.28000        1.32300       39.69200
C         19.21700        1.94600       38.49000
C         18.25700        1.55000       37.52300
H         18.20400        1.99500       36.67500
H         19.82500        2.66900       38.29200
H         19.90400        1.62000       40.36300
H         18.52800       -0.19900       40.77000
H         16.94300       -0.76000       39.25500
C         15.92800       -1.69300       37.04700
C         16.88200       -2.55500       36.65700
C         16.75700       -3.86300       36.85900
C         15.65800       -4.32200       37.52000
C         14.66300       -3.48200       37.94500
C         14.83100       -2.11400       37.71800
H         14.18000       -1.48100       38.03200
H         13.87600       -3.80800       38.38900
H         15.56800       -5.27100       37.68900
H         17.42800       -4.46900       36.55600
H         17.67100       -2.22200       36.22100
H         17.87200        0.36000       35.09500
H         16.89900       -0.74700       34.56800
C         15.40100        0.74500       32.65600
C         16.27500       -0.04700       31.90500
C         15.92100       -0.51600       30.64600
C         14.70200       -0.20500       30.14100
C         13.81800        0.56400       30.86300
C         14.17700        1.03600       32.10800
H         13.55800        1.57700       32.60500
H         12.95400        0.77100       30.50200
H         14.45400       -0.52500       29.27200
H         16.53400       -1.05400       30.14100
H         17.13700       -0.26900       32.26600
C         16.95100        2.71700       33.81800
C         18.27800        2.61600       33.51500
C         19.03300        3.63400       33.04900
C         18.46100        4.83600       32.92700
C         17.16500        5.04900       33.27700
C         16.43300        3.96900       33.68400
H         15.50400        4.09200       33.89000
H         16.77400        5.92300       33.24000
H         18.97600        5.57500       32.58000
H         19.95500        3.50100       32.82600
H         18.70100        1.75500       33.63700
