73
C:\Users\Javier\OneDrive - Universitat de Barcelona\Tesi\4 - Contribucions\Treballs\3-PhD\chapter_1\cif\pcp\MEGZIH.pcp.pdb
Pd        -0.39900        6.96200        3.21800
P          0.64700        5.51900        4.59600
P          0.88900        8.15100        4.65600
C         -2.22500        5.84700        1.11400
O         -1.43100        5.53700        2.04200
O         -2.83000        4.82900        0.44500
C         -2.58700        7.11400        0.65300
H         -3.12600        7.16800        0.01700
C         -2.10100        8.31600        1.15200
O         -1.28100        8.52700        2.09000
O         -2.61400        9.40700        0.52100
C         -2.44600        3.49600        0.80600
H         -2.92200        2.85400        0.23900
H         -2.67200        3.33200        1.74600
H         -1.48000        3.38900        0.68000
C         -2.21100       10.69300        1.01400
H         -2.73300       11.39200        0.56700
H         -1.25800       10.83000        0.82900
H         -2.36500       10.73600        1.98000
C          1.47200        6.75200        5.49300
H          2.03000        6.63300        6.18400
C          1.86300        4.30700        3.77300
C          2.93100        5.13700        3.06000
H          2.52800        5.60600        2.30000
H          3.64400        4.54500        2.74000
H          3.30800        5.79000        3.68500
C          1.21800        3.40400        2.71600
H          0.68900        3.95100        2.09800
H          0.63600        2.74900        3.15600
H          1.91900        2.93400        2.21600
C          2.57800        3.50500        4.86900
H          1.94400        2.88800        5.28800
H          2.93200        4.11900        5.54400
H          3.31500        2.99700        4.47100
C         -0.60100        4.50400        5.63700
C         -0.06000        4.35800        7.06000
H          0.15800        5.24300        7.41900
H          0.74700        3.80200        7.04800
H         -0.73900        3.93400        7.62600
C         -1.93100        5.27900        5.68000
H         -2.26800        5.39800        4.76600
H         -1.78500        6.15500        6.09100
H         -2.58600        4.77500        6.20600
C         -0.95500        3.13100        5.05500
H         -0.15100        2.57100        5.02700
H         -1.30900        3.24100        4.14800
H         -1.63100        2.70100        5.62100
C          2.25100        9.15200        3.75200
C          2.43600        8.53400        2.35800
H          2.68500        7.59000        2.44800
H          3.14600        9.01400        1.87900
H          1.59800        8.60500        1.85400
C          1.91900       10.62400        3.49600
H          1.07200       10.68800        3.00700
H          2.63500       11.03100        2.96500
H          1.83800       11.09400        4.35200
C          3.56500        8.99700        4.53000
H          3.74100        8.04500        4.68700
H          3.49300        9.46100        5.38900
H          4.30000        9.38300        4.01000
C         -0.00600        9.34600        5.83600
C          0.99800        9.91800        6.85100
H          1.46800        9.18300        7.29600
H          0.51800       10.45000        7.52000
H          1.64600       10.48600        6.38500
C         -1.03400        8.53800        6.62900
H         -0.58600        7.79100        7.07700
H         -1.71800        8.19200        6.02000
H         -1.45600        9.11400        7.29900
C         -0.79300       10.45900        5.11000
H         -1.26300       10.07700        4.33900
H         -0.17100       11.15100        4.80400
H         -1.44300       10.85500        5.72600
