79
C:\Users\Javier\OneDrive - Universitat de Barcelona\Tesi\4 - Contribucions\Treballs\3-PhD\chapter_1\cif\pcp\MEXWOB.pcp.pdb
Rh         4.88400        2.47200       14.67500
Cl         6.61300        3.77500       15.64200
P          3.40300        2.24500       16.67400
P          2.89700        1.53900       13.90900
C          6.01600        0.83800       14.46000
C          6.28700       -0.06400       15.47500
H          5.92000        0.07500       16.34200
C          7.09500       -1.17100       15.24000
H          7.26400       -1.78900       15.94100
C          7.65800       -1.38600       13.99100
H          8.18700       -2.15600       13.82100
C          7.43000       -0.45100       12.99400
H          7.82800       -0.57900       12.14200
C          6.63400        0.67100       13.20900
C          6.43000        1.78900       12.28300
C          6.96000        1.90700       11.01000
H          7.41000        1.16700       10.61800
C          6.84200        3.09000       10.30400
H          7.19200        3.16200        9.42500
C          6.20800        4.16000       10.89300
H          6.15700        4.98700       10.43000
C          5.64500        4.04900       12.15000
H          5.21800        4.80000       12.54300
C          5.69900        2.83800       12.85500
C          2.96600        3.97100       17.32000
C          3.97000        4.38500       18.38900
H          3.74100        5.27700       18.72400
H          4.87100        4.40300       18.00200
H          3.94300        3.74200       19.12700
C          1.52500        4.15300       17.82800
H          1.40200        5.07400       18.14100
H          1.35900        3.53200       18.56900
H          0.89500        3.96700       17.10100
C          3.16200        4.92200       16.13700
H          2.94900        5.83600       16.41600
H          2.57100        4.65600       15.40300
H          4.09500        4.88000       15.83700
C          3.49600        1.10000       18.19300
C          3.32400       -0.36400       17.76600
H          3.37700       -0.94200       18.55800
H          4.03600       -0.60700       17.13800
H          2.45300       -0.47900       17.33400
C          2.42100        1.37600       19.25500
H          2.53200        0.75300       20.00200
H          1.53300        1.25600       18.85800
H          2.51300        2.29700       19.58000
C          4.90400        1.25900       18.80000
H          4.98900        0.68200       19.58600
H          5.04400        2.19300       19.06300
H          5.57800        1.00400       18.13400
C          1.97400        2.60200       12.62100
C          2.17300        4.07700       12.97900
H          1.70300        4.63900       12.32800
H          3.13000        4.29000       12.96500
H          1.81400        4.24700       13.87700
C          0.44000        2.36600       12.59100
H          0.03500        2.93900       11.90800
H          0.05900        2.58300       13.46700
H          0.25900        1.42600       12.38000
C          2.55200        2.35600       11.22000
H          2.06700        2.90200       10.56600
H          2.45500        1.40900       10.98800
H          3.50100        2.59900       11.20900
C          2.73100       -0.27400       13.35200
C          1.32700       -0.62600       12.85100
H          1.30400       -1.56800       12.58000
H          1.10300       -0.06100       12.08400
H          0.67700       -0.47700       13.56900
C          3.76300       -0.60000       12.26400
H          3.66300       -1.53700       11.98900
H          4.66600       -0.45800       12.61800
H          3.61800       -0.01600       11.49100
C          3.01400       -1.18800       14.54700
H          2.93000       -2.12300       14.27000
H          2.37200       -0.99900       15.26200
H          3.92300       -1.02500       14.87600
C          1.98700        1.73800       15.53400
H          1.57100        0.88800       15.82500
H          1.29200        2.44300       15.47900
