94
C:\Users\Javier\OneDrive - Universitat de Barcelona\Tesi\4 - Contribucions\Treballs\3-PhD\chapter_1\cif\pcp\MOWRUL.pcp.pdb
C          1.79900        1.80600        9.45700
C          1.79900        2.01800       10.82900
C          1.17300        3.13800       11.39100
C          0.56900        4.08300       10.57500
C          0.55300        3.89400        9.20500
C          1.15300        2.76900        8.65000
C          1.19100        2.53100        7.21700
C          1.86200        1.27200        5.31600
C          3.33400        1.25200        4.94700
C          3.52200        1.04600        3.44800
C          2.81200       -0.18900        2.96200
C          1.34000       -0.16700        3.33100
C          1.15100        0.02100        4.84400
C          0.34200        4.28100       13.25900
C          0.35200        5.47200       12.43300
C          2.27500       -1.92400       11.03000
C          2.68900       -3.14600       11.53500
C          1.83500       -3.88300       12.34700
C          0.59800       -3.40900       12.65600
C          0.16400       -2.21500       12.13400
C          0.99700       -1.46100       11.31200
C          4.53600       -0.11000       11.22600
C          4.65400       -0.49400       12.54300
C          5.54600        0.15800       13.38600
C          6.30400        1.19500       12.91700
C          6.19200        1.57500       11.60900
C          5.32300        0.92300       10.76400
C          2.09300       -3.15600        7.69900
C          2.48200       -4.44100        8.02400
C          1.53500       -5.41300        8.26400
C          0.21200       -5.13000        8.15100
C         -0.18900       -3.87400        7.79500
C          0.75200       -2.87200        7.58400
C          4.35700       -2.32900        6.06600
C          3.98300       -3.34400        5.19600
C          4.80400       -3.67500        4.13100
C          5.98200       -3.00300        3.93200
C          6.36300       -1.98900        4.77700
C          5.54500       -1.63900        5.83800
C          4.36700       -1.99200        8.96800
C          5.59600       -2.43600        9.12400
O          1.21800        3.24900       12.75200
O         -0.02700        5.21700       11.08700
N          1.72900        1.45500        6.77900
P          3.32400       -1.84700        7.47100
P          3.40300       -0.89800       10.05800
P          2.29400        5.77700        4.32000
F          2.89100        4.34100        4.18300
F          1.20900        5.33900        5.29000
F          1.75100        7.26300        4.41300
F          3.33500        6.23400        3.24000
F          1.31200        5.54800        3.13900
F          3.32800        6.19100        5.37600
Pd         2.50700        0.25600        8.34500
H          2.23300        1.38200       11.40300
H          0.12400        4.53700        8.63500
H          0.82300        3.17300        6.60700
H          1.45300        2.02300        4.87800
H          3.76200        0.53300        5.41900
H          3.74300        2.07500        5.22300
H          4.45700        0.98000        3.25000
H          3.17000        1.80900        2.98100
H          3.21800       -0.95800        3.37200
H          2.91200       -0.27300        2.01200
H          0.92100       -0.98100        3.04400
H          0.92000        0.56400        2.87400
H          0.21700        0.07500        5.05800
H          1.51900       -0.74000        5.30200
H         -0.55300        3.94000       13.29000
H          0.60700        4.50600       14.15500
H          1.23900        5.83600       12.43500
H         -0.24100        6.13200       12.80400
H          3.56400       -3.47500       11.32700
H          2.11900       -4.73100       12.69400
H          0.02600       -3.91600       13.23500
H         -0.71800       -1.90100       12.34400
H          0.69400       -0.62800       10.94400
H          4.11400       -1.21600       12.87400
H          5.63500       -0.12600       14.29900
H          6.90200        1.66200       13.50300
H          6.73500        2.29200       11.27400
H          5.26300        1.18500        9.84200
H          3.41700       -4.64800        8.08900
H          1.81700       -6.29600        8.51300
H         -0.44200       -5.81500        8.31700
H         -1.12300       -3.68300        7.69200
H          0.47100       -1.98200        7.35600
H          3.15800       -3.81400        5.33800
H          4.54000       -4.36500        3.51800
H          6.56000       -3.25600        3.20900
H          7.19100       -1.52200        4.63100
H          5.79400       -0.92000        6.42200
H          6.08600       -2.19100        9.87300
H          5.97300       -2.99500        8.48200
