115
C:\Users\Javier\OneDrive - Universitat de Barcelona\Tesi\4 - Contribucions\Treballs\3-PhD\chapter_1\cif\pcp\MOWSAS.pcp.pdb
C         11.79200        2.68900       12.17800
C         11.87800        2.03600       13.39500
C         10.94400        1.09800       13.78000
C          9.90200        0.77100       12.90400
C          9.78500        1.40300       11.67600
C         10.71700        2.39600       11.35000
C         10.64500        3.13700       10.06800
C         11.52900        4.73300        8.50900
C         10.78100        4.08500        7.36500
C         10.96800        4.95600        6.05600
C         10.40300        6.26500        6.27200
C         11.13000        6.96400        7.44100
C         11.06800        6.11600        8.73100
C         10.10500       -0.46200       15.29100
C          9.23100       -0.79000       14.47400
C         15.60600        5.45700       11.89800
C         15.47700        2.85400       13.41900
C         15.47600        2.37700       14.72800
C         16.12700        1.21900       15.02600
C         16.77100        0.52800       14.09500
C         16.77100        0.99800       12.78600
C         16.14800        2.16000       12.45700
C         14.20400        5.21800       14.51800
C         15.21400        5.61500       15.41200
C         14.90300        6.35200       16.56500
C         13.60800        6.64800       16.83300
C         12.62600        6.25400       16.02400
C         12.87800        5.52200       14.85600
C         14.81100        6.71100        9.26000
C         14.57400        7.99700        8.78000
C         15.00100        8.36400        7.49800
C         15.65000        7.46700        6.68900
C         15.87700        6.17600        7.15000
C         15.45200        5.80700        8.40300
C         13.52900        7.57900       11.77200
C         12.23400        7.53300       12.21400
C         11.66100        8.59400       12.97300
C         12.47000        9.64000       13.27100
C         13.74700        9.74300       12.78900
C         14.29500        8.73400       12.06100
C         16.66600        6.33000       12.52200
C         18.08200        8.26000       12.16600
C         18.62100        9.23100       11.15600
C         19.49400        8.45300       10.11000
C         18.70800        7.36100        9.50700
C         18.12500        6.42100       10.55200
N         11.51200        4.01100        9.81000
N         17.27400        7.20100       11.51200
O         11.11100        0.48400       15.00400
O          8.95900       -0.17500       13.23500
P         14.20200        6.13100       10.88200
P         14.53000        4.35700       12.96500
Pd        12.89300        4.23200       11.39400
P         17.86600        2.21900        8.60400
F         16.38700        2.66600        9.05100
F         17.74500        0.93700        9.48700
F         17.29600        1.41500        7.35500
P          6.44100        8.61700        1.30600
F          7.40700        7.18000        1.09400
F          6.59800        8.80400       -0.35400
F          6.52600        8.29800        2.90500
F          7.97500        9.44800        1.43200
F          5.68200        9.94000        1.43300
F          5.11700        7.71300        1.10100
H         12.61300        2.23200       13.98000
H          9.08600        1.16500       11.06100
H          9.98000        2.90900        9.41500
H         12.45400        4.80700        8.26200
H          9.85300        3.96800        7.58400
H         11.16800        3.21800        7.22600
H         10.47300        4.54300        5.34300
H         11.89000        5.01200        5.79100
H          9.47200        6.19900        6.50000
H         10.47300        6.79800        5.47700
H         10.76100        7.83900        7.58400
H         12.05400        7.06500        7.20300
H         11.58000        6.53500        9.42800
H         10.15000        6.08600        9.01400
H         10.61400       -1.27500       15.28600
H          9.77100       -0.34800       16.18300
H          8.45800       -0.58800       15.00400
H          9.19900       -1.73300       14.29700
H         16.07500        4.85800       11.31100
H         15.00800        2.86600       15.41000
H         16.17700        0.94800       15.94500
H         17.14700       -0.32600       14.32100
H         17.26400        0.50700       12.12500
H         16.14600        2.47700       11.55000
H         16.11800        5.32300       15.26400
H         15.58900        6.66300       17.16000
H         13.42300        7.19200       17.60400
H         11.72200        6.46900       16.26500
H         12.16400        5.20800       14.29700
H         14.11000        8.63000        9.33200
H         14.84500        9.26100        7.19100
H         15.93000        7.73100        5.80900
H         16.35100        5.54500        6.60400
H         15.58600        4.90700        8.70700
H         11.70200        6.76400       11.99900
H         10.75600        8.53400       13.28600
H         12.09300       10.35900       13.78400
H         14.26900       10.52600       12.98000
H         15.20700        8.78500       11.76200
H         17.35000        5.77400       12.90300
H         16.28200        6.85400       13.23000
H         17.52300        8.73900       12.78400
H         18.80600        7.86900       12.66000
H         19.14700        9.90900       11.58600
H         17.89600        9.66100       10.69700
H         20.26000        8.08600       10.55900
H         19.80900        9.05600        9.43200
H         19.26500        6.86600        8.90200
H         17.97600        7.73100        9.00800
H         18.85700        6.02600       11.03200
H         17.61000        5.71600       10.15500
