200
C:\Users\Javier\OneDrive - Universitat de Barcelona\Tesi\4 - Contribucions\Treballs\3-PhD\chapter_1\cif\pcp\MOXFAJ.pcp.pdb
Sb        -2.29200        8.28800       29.32600
F         -2.63500        9.43900       30.76500
F         -2.00500        7.11900       27.89200
F         -4.10900        7.96600       29.12300
F         -2.21700        6.89700       30.58000
F         -0.47900        8.54900       29.57100
F         -2.41300        9.70800       28.15700
Rh         5.48200        5.65900       23.11100
P          5.23100        5.34900       25.42900
P          6.61400        7.34900       24.15800
C          6.21900        4.01400       26.28000
C          7.67700        4.15900       25.80200
H          7.70800        4.08600       24.81500
H          8.01800        5.05300       26.05400
C          6.08600        6.93300       25.86000
H          5.46700        7.60600       26.23900
H          6.85300        6.79500       26.47100
C          8.08100        1.69800       26.03100
H          8.65900        1.00700       26.44100
H          8.12200        1.59200       25.04600
C          1.30800        7.39000       26.93500
H          1.78400        8.25700       26.88400
H          0.37900        7.56300       27.23000
C          6.27700        9.17900       23.94000
C          5.73200        2.60900       25.87100
H          5.75600        2.52100       24.88500
H          4.79700        2.48000       26.17000
C          8.57400        3.08000       26.41700
H          9.51400        3.20300       26.09900
C          2.75600        6.49600       25.12000
H          3.22500        7.36700       25.08000
H          2.77100        6.09700       24.21400
C          2.73500        4.21300       26.20000
H          2.75400        3.76600       25.31700
H          3.17400        3.61900       26.85800
C          6.63900        1.52600       26.51300
H          6.30700        0.61900       26.25300
C          2.00600        6.47500       27.93600
H          1.98700        6.90200       28.83900
C          3.49500        5.55100       26.11900
C          7.09900        3.04700       28.43500
H          7.07200        3.12600       29.43200
C          1.30000        6.71800       25.55600
H          0.84300        7.31600       24.89800
C          3.46000        6.22000       27.53100
H          3.89200        5.62700       28.19500
H          3.95700        7.07600       27.50900
C          5.11100        6.51100       21.10000
H          5.04700        7.50900       21.11200
C          0.57700        5.38100       25.61800
H          0.58000        4.95800       24.72200
H         -0.36300        5.52100       25.89100
C          3.93800        5.87000       20.43200
H          4.25700        5.35800       19.64800
H          3.33200        6.58000       20.10100
C          1.25500        5.11600       27.99600
H          1.69100        4.52000       28.65400
H          0.31800        5.26200       28.28100
C          6.91300        9.97100       25.06700
H          6.58300        9.63700       25.92800
H          6.67800       10.91900       24.97500
H          7.88600        9.87200       25.03000
C          8.43000        7.23000       24.10700
H          8.69900        6.29700       24.24300
H          8.81400        7.78800       24.81400
H          8.75300        7.53800       23.23400
C          1.27800        4.46800       26.62400
H          0.79300        3.59600       26.66400
C          6.58500        1.66900       28.02400
H          7.14200        0.96700       28.44500
H          5.65300        1.55300       28.33800
C          6.86300        9.60400       22.59300
H          7.83900        9.51600       22.61900
H          6.62400       10.53600       22.41100
H          6.50300        9.03000       21.88500
C          8.52900        3.22200       27.95500
H          9.10900        2.53800       28.37500
H          8.86500        4.11600       28.22100
C          6.17300        4.12800       27.81200
H          5.24400        3.99700       28.13000
H          6.47200        5.02900       28.09100
C          5.94600        3.61800       20.80300
H          6.47000        2.78000       20.74600
H          5.27400        3.59800       20.07600
C          5.20300        3.63700       22.15700
H          5.40900        2.86400       22.75500
C          4.77400        9.42400       23.93500
H          4.34700        8.81100       23.29900
H          4.59500       10.34900       23.66500
H          4.41500        9.26900       24.83100
C          6.39400        6.07100       21.12600
H          7.08100        6.79800       21.12800
C          3.14700        4.93600       21.34300
H          2.45400        5.46400       21.81100
H          2.68200        4.26700       20.77800
C          6.87100        4.77200       20.56300
H          7.75300        4.56100       20.95800
H          6.99800        4.87900       19.58600
C          3.97000        4.20600       22.36700
H          3.43300        3.76800       23.08700
Sb        10.70500        7.93400       19.62200
F         10.75900        9.79600       19.50900
F         12.13200        7.85400       18.40700
F          9.29900        8.07800       20.84000
F         11.93700        8.01000       21.02700
F          9.50500        7.84000       18.21000
F         10.68700        6.08100       19.77400
Rh        10.39300       15.25600       20.42800
P          9.76000       14.59700       22.57800
P         11.18500       16.81900       21.85700
C          7.92500       14.68600       22.99800
C         10.37600       16.25300       18.46500
H         10.19900       17.23400       18.53100
C         10.63100       13.11200       23.31200
C         10.48900       16.12200       23.40300
H          9.80000       16.70400       23.81000
H         11.18600       15.89900       24.07100
C          7.20300       13.34000       22.74700
H          7.39700       13.02600       21.82800
H          7.54200       12.65900       23.38200
C         10.54500       13.02200       24.83500
H          9.60300       12.89500       25.11100
H         10.87800       13.86200       25.24000
C          7.65600       15.07800       24.47300
H          8.10500       15.93600       24.68300
H          8.01600       14.38300       25.07900
C          7.32200       15.77000       22.06200
H          7.76800       16.63900       22.23100
H          7.48600       15.52100       21.11800
C         12.42100       10.77200       22.79100
H         12.95700       10.00600       23.11600
H         12.49600       10.81000       21.80600
C         10.94400       10.58800       23.19900
H         10.59200        9.73600       22.81100
C         12.84300       12.01600       24.94000
H         13.38100       11.26100       25.28600
H         13.19400       12.85400       25.33300
C         10.82200       18.67100       21.79700
C         10.57000       13.32300       19.28500
H         10.74900       12.52300       19.85900
C         12.95000       12.07400       23.40400
H         13.90700       12.19900       23.14200
C         10.10700       11.76400       22.69800
H          9.16000       11.63000       22.95400
H         10.15600       11.80900       21.71000
C         10.86400       10.53000       24.72800
H          9.92400       10.39400       25.00800
H         11.39900        9.76800       25.06200
C          5.56600       16.31200       23.76100
H          6.01600       17.17300       23.95700
H          4.59500       16.42700       23.91800
C         11.39500       11.83600       25.32300
H         11.33100       11.78400       26.32000
C          5.69700       13.50100       22.92600
H          5.25400       12.62700       22.72600
C         11.69600       15.92300       18.75300
H         12.27600       16.70800       18.97300
C          9.24300       13.72700       19.27700
H          8.63200       13.16200       19.83100
C         12.13100       13.27700       22.93000
H         12.21300       13.36500       21.94800
H         12.48800       14.10200       23.34300
C          5.81500       15.91500       22.29900
H          5.45000       16.62400       21.69500
C          6.11700       15.21800       24.67700
H          5.93600       15.47000       25.62800
C         13.02100       16.75600       22.10400
H         13.30200       15.82400       22.22300
H         13.26100       17.27300       22.90100
H         13.47000       17.13500       21.32000
C         11.31900       19.35800       23.08300
H         10.89900       18.93800       23.86200
H         11.08400       20.30900       23.05800
H         12.29300       19.26400       23.14700
C          5.41000       13.87400       24.37000
H          5.74700       13.16800       24.97700
H          4.43400       13.96500       24.51000
C          5.12800       14.56700       21.98400
H          4.14900       14.64600       22.11600
H          5.29600       14.31100       21.04300
C         12.44700       14.70600       18.33200
H         13.12500       14.49000       19.02000
H         12.92300       14.89700       17.48600
C          9.42600       15.54400       17.50900
H          9.95700       15.12900       16.78400
H          8.83000       16.21800       17.09700
C         11.52500       13.47600       18.12500
H         11.01300       13.58300       17.28700
H         12.07900       12.65800       18.04600
C          8.56800       14.46800       18.16300
H          7.74500       14.89200       18.51600
H          8.29400       13.81700       17.46900
C         11.53200       19.25400       20.57100
H         12.49900       19.12100       20.65700
H         11.33900       20.21300       20.50400
H         11.21200       18.80200       19.76100
C          9.34400       18.88200       21.65400
H          9.00900       18.35100       20.90300
H          9.16400       19.83100       21.49200
H          8.89400       18.60200       22.48000
