122
C:\Users\Javier\OneDrive - Universitat de Barcelona\Tesi\4 - Contribucions\Treballs\3-PhD\chapter_1\cif\pcp\MUMBEB.pcp.pdb
C          8.54700        1.56000       10.32000
C          9.79300        1.91400       10.83100
C         10.95700        1.30200       10.35700
H         11.79300        1.53500       10.68800
C         10.82100        0.34900        9.39100
C          9.56800       -0.01000        8.85900
H          9.51200       -0.65900        8.19600
C          8.43200        0.60000        9.32300
C         11.04100        3.26400       12.36400
H         10.88800        3.94400       13.02400
H         11.61700        3.60700       11.67800
H         11.45300        2.50300       12.77900
C         13.16700       -0.04100        9.31800
H         13.80200       -0.59600        8.86100
H         13.21900       -0.20900       10.26400
H         13.36700        0.88200        9.14800
C          7.30500        2.13700       10.78900
H          7.30800        2.76600       11.47500
C          4.95500        2.27400       10.86600
H          5.18700        2.93500       11.54900
C          4.06400        2.95500        9.84100
H          3.87400        2.33900        9.11500
H          4.52000        3.72500        9.47200
C          2.75300        3.39900       10.48800
H          2.93900        4.09500       11.13900
H          2.17300        3.77500        9.80900
C          2.04600        2.26600       11.16700
H          1.76900        1.61500       10.50400
H          1.24900        2.60200       11.60800
C          2.93700        1.59800       12.18400
H          2.47600        0.83700       12.56900
H          3.13800        2.22200       12.90100
C          4.23300        1.13400       11.54500
H          4.80900        0.75000       12.22400
H          4.03900        0.44200       10.89100
C          5.08500       -1.37200        6.67200
H          4.88900       -2.09500        7.30400
C          4.57700       -1.89500        5.34200
H          5.10800       -2.66400        5.08300
H          4.70000       -1.20900        4.66700
C          3.09200       -2.30100        5.37700
H          2.58300       -1.52400        5.68700
C          2.78200       -3.44100        6.29900
C          8.52800        1.31500        3.37200
H          8.85400        1.80400        2.65300
C          1.38600       -3.79900        6.47100
H          0.92000       -3.57700        5.65000
H          1.02100       -3.23600        7.16900
C          8.59100        1.82600        4.62800
H          8.96000        2.66800        4.76500
C          1.04500       -5.29500        6.82800
H          0.09700       -5.38400        6.95200
H          1.49900       -5.54300        7.63600
H          1.33000       -5.86800        6.11200
C          1.59400       -1.90000        2.00000
H          2.27600       -2.28900        1.43100
H          0.81900       -2.48200        2.02300
C          8.64200       -3.09600        6.26800
H          8.93600       -2.57000        5.56100
C          7.55800       -0.14800        5.53100
C          1.23200       -0.50200        1.56800
H          0.88900       -0.52100        0.67200
H          2.01500        0.05300        1.59900
H          0.56700       -0.14700        2.16100
C          2.82600       -0.29600        8.16300
C          2.75600       -1.30000        9.10100
H          3.53900       -1.72900        9.36000
C          1.56900       -1.68700        9.66400
H          1.54700       -2.36800       10.29900
C          0.41700       -1.05700        9.28300
H         -0.39600       -1.31900        9.65200
C          0.45100       -0.05800        8.37800
H         -0.34000        0.36400        8.12800
C          1.64000        0.33900        7.82700
H          1.65400        1.04400        7.22300
C          4.28600        1.40800        6.23800
C          3.43100        1.27600        5.14600
H          2.84900        0.55300        5.09700
C          3.44700        2.20600        4.15400
H          2.87900        2.11300        3.42400
C          4.29500        3.27900        4.22600
H          4.31900        3.89700        3.53100
C          5.10500        3.44700        5.30900
H          5.66300        4.19000        5.36500
C          5.09600        2.51800        6.30800
H          5.64500        2.63700        7.05000
C          7.67600       -2.61100        7.12900
C          7.28100       -3.40300        8.17000
H          6.64700       -3.08700        8.77200
C          7.81400       -4.68200        8.33400
H          7.53200       -5.21500        9.04300
C          8.73700       -5.14800        7.47200
H          9.07700       -6.00800        7.57100
C          9.16800       -4.35800        6.45500
H          9.82700       -4.67100        5.87900
C          7.50100       -0.64400        4.23800
H          7.13200       -1.48400        4.09300
C          7.97600        0.07100        3.17100
H          7.92500       -0.28400        2.31500
C          8.10700        1.10200        5.70800
H          8.15600        1.46600        6.56200
C          2.60400       -2.63500        4.00500
N          6.21900        1.77800       10.26100
O          9.79700        2.87400       11.79000
O         11.86500       -0.33500        8.85900
O          3.64700       -4.03700        6.91000
O          2.63100       -3.73600        3.54500
O          2.11300       -1.59400        3.37900
F          4.84100       -4.20300       12.87300
F          6.06400       -1.96100       11.12700
F          6.81100       -2.89700       12.72100
F          4.95100       -1.95400       13.00800
F          4.04700       -3.18900       11.46100
F          6.06100       -4.14900       11.14600
F          6.06700       -2.68100       13.38400
F          4.22400       -2.05100       12.20800
F          4.78400       -3.50600       10.57200
F          6.61900       -4.15100       11.69900
P          6.87500       -0.99300        6.96500
P          4.45400        0.15100        7.52200
P          5.44300       -3.08500       12.01700
Pd         6.50300        0.39100        8.70800
