127
C:\Users\Javier\OneDrive - Universitat de Barcelona\Tesi\4 - Contribucions\Treballs\3-PhD\chapter_1\cif\pcp\NIMYUG.pcp.pdb
C          8.87600        7.04600        9.18600
C          8.49000        7.59800        7.98600
H          7.73000        7.24900        7.53800
C          9.18400        8.65400        7.41000
H          8.91000        9.02100        6.57900
C         10.28500        9.15200        8.07800
H         10.77700        9.87400        7.70500
C         10.66200        8.62700        9.25300
H         11.42000        8.98400        9.70000
C          9.97300        7.57400        9.82700
H         10.25800        7.21600       10.66000
C          8.96400        4.28000        9.02000
C          8.61800        3.86800        7.75100
H          7.85600        4.25200        7.33300
C          9.35700        2.90700        7.06500
H          9.09500        2.62100        6.19700
C         10.47700        2.37900        7.67300
H         11.01900        1.74800        7.21400
C         10.79100        2.76200        8.90500
H         11.55600        2.38300        9.32500
C         10.03700        3.69600        9.59600
H         10.27600        3.93000       10.48500
C          6.30600        7.14200       13.06800
C          7.37100        7.90000       13.54400
H          8.26200        7.60800       13.39000
C          7.14500        9.07400       14.23800
H          7.87800        9.58200       14.56400
C          5.86500        9.50600       14.45500
H          5.71400       10.32400       14.91100
C          4.80800        8.77000       14.02100
H          3.92500        9.06900       14.20300
C          4.99600        7.58900       13.31700
H          4.24900        7.08900       13.00700
C          6.12000        4.26700       13.26900
C          4.77900        4.00000       13.52800
H          4.09800        4.54200       13.14600
C          4.44900        2.93400       14.34900
H          3.53600        2.76000       14.54900
C          5.41200        2.13300       14.87000
H          5.16500        1.37900       15.39300
C          6.72900        2.39900       14.65400
H          7.40000        1.85800       15.05500
C          7.08400        3.47300       13.84100
H          8.00200        3.65800       13.68000
C          8.27600        5.46500       11.63500
H          8.67000        4.59700       11.90200
H          8.82300        6.21400       11.98300
C          6.65400        9.31300       10.24800
H          6.82000        8.96600       11.11700
C          8.34700       10.98800       10.69800
H          7.93000       11.69600       11.23200
H          9.06800       11.37100       10.15400
H          8.71500       10.30300       11.29300
C          7.11200       10.91500        8.62600
H          7.60400       11.67800        8.34700
C          6.16800       10.37100        7.78900
H          6.00900       10.74400        6.93000
C          5.44900        9.26400        8.22300
H          4.77300        8.89000        7.67100
C          5.71700        8.71200        9.45300
C          3.73400        7.79100       10.21200
C          2.99700        6.54700       10.61500
C          1.69600        6.53600       11.09700
H          1.20500        7.34300       11.20700
C          1.13700        5.30600       11.41400
H          0.26800        5.26500       11.79400
C          1.84400        4.13900       11.17700
H          1.45000        3.29000       11.34700
C          3.14000        4.23700       10.68800
C          4.04500        3.07200       10.39300
C          5.04100        5.46700        6.82600
C          4.80100        5.45400        5.38900
H          5.12600        4.60800        5.01200
H          5.27700        6.20100        4.97000
H          3.84100        5.53900        5.21600
N          7.34400       10.38500        9.82300
N          5.03000        7.56100        9.92500
N          3.69700        5.42000       10.46300
N          5.29900        3.44400       10.05300
N          5.20800        5.45200        7.92000
O          3.14400        8.87600       10.17800
O          3.61600        1.91400       10.45900
P          7.95600        5.58900        9.80800
P          6.49800        5.61200       12.07500
Ru         5.66700        5.52500        9.97000
C          6.25500        2.34100        9.85700
C          6.35800        1.82200        8.67300
H          5.81200        2.16900        7.97600
C          6.98700        0.01600        7.12300
H          6.32400        0.48900        6.58100
H          7.82400       -0.06700        6.61900
H          6.65100       -0.87800        7.34500
N          7.23500        0.77100        8.37200
C          8.06400        0.35600        9.24500
H          8.71500       -0.30500        9.03300
C          7.98200        0.87700       10.45300
H          8.53100        0.51200       11.13800
C          7.16800        1.89000       10.77000
H          7.22400        2.29500       11.62800
C          5.96600        2.43100        9.42500
C          6.90900        1.90300       10.10800
H          7.09600        2.23600       10.97800
C          8.72200        0.26600       10.42900
H          8.77600        0.76200       11.27300
H          8.51400       -0.67300       10.61500
H          9.58000        0.32500        9.96000
N          7.67500        0.83900        9.59800
C          7.41300        0.35600        8.44400
H          7.96700       -0.32500        8.07700
C          6.36500        0.81400        7.75300
H          6.16700        0.43800        6.90300
C          5.58500        1.79300        8.23700
H          4.79000        2.04800        7.78400
F          5.48500        7.86000        3.03100
F          5.42000        8.78800        5.06400
F          4.59200        9.89900        3.35200
F          6.49400       10.61000        4.31300
F          6.50100        9.69400        2.23400
F          7.37200        8.58400        3.96800
P          5.99300        9.24200        3.66700
F          5.81000        3.29000        3.03900
F          5.96100        2.34800        5.05600
F          5.13500        1.15600        3.34800
F          7.10900        0.61200        4.18500
F          6.95600        1.57400        2.16600
F          7.78700        2.72600        3.84400
P          6.46300        1.94600        3.61700
