216
C:\Users\Javier\OneDrive - Universitat de Barcelona\Tesi\4 - Contribucions\Treballs\3-PhD\chapter_1\cif\pcp\NUZYAJ.pcp.pdb
Ru        18.36300        3.57300        3.74300
Cl        19.22700        1.82600        2.35300
P         17.76100        4.39600        1.59500
P         20.14900        4.79300        2.87400
N         14.94200        3.43600        1.56100
N         17.85400        6.25600       -0.93900
N         21.39000        6.10400        5.48000
N         22.57300        5.58600        1.18400
C         19.53000        4.69100        1.14500
H         19.92700        3.93500        0.64300
H         19.66000        5.53600        0.64500
C         17.03500        3.28000        0.35400
C         15.70100        2.90200        0.46200
C         15.14100        2.04000       -0.48900
H         14.22800        1.78200       -0.41600
C         15.90200        1.56400       -1.52800
H         15.51200        0.98600       -2.17500
C         17.23200        1.92400       -1.63400
H         17.76600        1.57700       -2.33900
C         17.78300        2.78600       -0.71400
H         18.69000        3.04900       -0.80800
C         13.97400        4.45500        1.12100
H         14.43700        5.13900        0.59500
H         13.55700        4.87100        1.90500
H         13.28300        4.03200        0.57000
C         14.25300        2.41000        2.33300
H         14.89900        1.73100        2.62300
H         13.56500        1.98800        1.77600
H         13.83200        2.81800        3.11800
C         16.97400        6.03100        1.35100
C         17.19800        6.81900        0.21200
C         16.74200        8.14000        0.21100
H         16.93700        8.70600       -0.52700
C         16.01000        8.62900        1.27700
H         15.72900        9.53600        1.27400
C         15.68600        7.82500        2.34000
H         15.13400        8.15100        3.03800
C         16.18100        6.51900        2.37900
H         15.97400        5.96100        3.11800
C         18.83500        7.12700       -1.58200
H         19.48000        7.44100       -0.91500
H         18.37600        7.89600       -1.98000
H         19.30300        6.62800       -2.28200
C         16.88200        5.78600       -1.92000
H         16.22600        5.20900       -1.47800
H         17.34400        5.28000       -2.62100
H         16.42500        6.55400       -2.32100
C         20.41900        6.56600        3.25800
C         21.04100        7.02200        4.42900
C         21.31900        8.38600        4.56000
H         21.75500        8.69700        5.34600
C         20.97400        9.29100        3.57400
H         21.19300       10.21100        3.67000
C         20.31200        8.85000        2.45100
H         20.04600        9.47100        1.78300
C         20.03500        7.51000        2.29500
H         19.57300        7.21900        1.51700
C         22.82300        5.81100        5.49800
H         23.02100        5.18600        6.22700
H         23.32400        6.64100        5.63400
H         23.08300        5.40900        4.64400
C         21.00300        6.60600        6.80400
H         20.04600        6.81000        6.80800
H         21.51000        7.42000        7.00600
H         21.19600        5.92500        7.48200
C         21.80700        4.02000        2.90800
C         22.83700        4.49200        2.08700
C         24.09400        3.90000        2.17500
H         24.80700        4.22200        1.63500
C         24.31800        2.84200        3.04800
H         25.18200        2.44700        3.10000
C         23.29300        2.36500        3.83800
H         23.44300        1.63500        4.42600
C         22.03900        2.95900        3.77100
H         21.33300        2.63600        4.31900
C         23.32700        6.78400        1.56600
H         23.12600        7.01400        2.49800
H         23.07200        7.52900        0.98300
H         24.28700        6.60900        1.47400
C         22.83700        5.22100       -0.20200
H         22.31800        4.42200       -0.43400
H         23.79300        5.03500       -0.31600
H         22.57800        5.96100       -0.79000
C         17.22100        6.26100        5.58900
H         17.34100        6.50600        6.53100
H         16.30600        6.47700        5.30900
H         17.85700        6.76200        5.03700
C         17.94200        1.94900        5.31300
C         16.71500        2.49700        4.87500
H         16.07800        1.91700        4.36900
C         16.48700        3.89200        4.92200
H         15.68200        4.26700        4.46000
C         17.46400        4.78000        5.41900
C         18.72100        4.21700        5.80000
H         19.48700        4.83000        5.98800
C         18.94800        2.83000        5.77900
H         19.87300        2.48300        5.92700
C         18.25600        0.46800        5.28800
H         19.21300        0.37400        5.01200
C         18.14000       -0.08100        6.70200
H         18.69000        0.45900        7.30800
H         18.45200       -1.01000        6.71700
H         17.20400       -0.04400        6.99200
C         17.42400       -0.33700        4.30100
H         17.68000       -1.28200        4.35300
H         17.58600       -0.00500        3.39300
H         16.47500       -0.24100        4.52100
Ru         8.75700        7.92200       19.02100
Cl         8.05300        6.22300       20.55100
P          9.36000        8.95300       21.08600
P          6.91400        9.10000       19.82900
N         12.15600        8.14500       21.33000
N          9.26700       11.11600       23.36400
N          5.35000        9.82400       17.24800
N          4.63200        9.90800       21.67900
C          7.60100        9.28100       21.51100
H          7.23500        8.60900       22.14100
H          7.46600       10.19100       21.87500
C         10.05000        8.02500       22.49500
C         11.41400        7.79300       22.51200
C         12.00600        7.23900       23.64200
H         12.94800        7.11900       23.66700
C         11.24100        6.86300       24.72700
H         11.65300        6.47900       25.49300
C          9.87800        7.04900       24.69000
H          9.34100        6.76600       25.42200
C          9.28500        7.64300       23.59500
H          8.34600        7.79300       23.59200
C         13.27500        9.03100       21.61300
H         12.95500        9.81800       22.10200
H         13.68700        9.31600       20.77100
H         13.94000        8.55700       22.15700
C         12.59900        6.96100       20.59800
H         11.83000        6.38200       20.41700
H         13.25800        6.47300       21.13500
H         13.00600        7.23600       19.75000
C         10.21600       10.56300       21.16100
C         10.05000       11.47800       22.20800
C         10.69700       12.72400       22.13400
H         10.54900       13.37400       22.80800
C         11.54700       13.00300       21.07800
H         11.97100       13.85200       21.03000
C         11.79100       12.06900       20.09200
H         12.41100       12.25100       19.39500
C         11.11700       10.86500       20.13700
H         11.27100       10.22400       19.45200
C          8.30500       12.12500       23.78000
H          7.73300       12.36300       23.02000
H          8.78200       12.92100       24.09400
H          7.75100       11.76800       24.50500
C         10.12200       10.75600       24.49300
H         10.76900       10.07700       24.21000
H          9.56800       10.39700       25.21800
H         10.60000       11.55100       24.80900
C          6.49500       10.76800       19.21300
C          5.75400       10.95000       18.02700
C          5.40700       12.26100       17.66500
H          4.90900       12.40100       16.87000
C          5.76500       13.33500       18.41700
H          5.48900       14.20600       18.15500
C          6.52500       13.16600       19.55300
H          6.79900       13.91800       20.06500
C          6.88800       11.87900       19.94100
H          7.41500       11.76100       20.72200
C          3.92400        9.49800       17.44400
H          3.74400        9.37900       18.40100
H          3.70800        8.67000       16.96600
H          3.37200       10.22800       17.09700
C          5.56300        9.98900       15.79200
H          6.50300       10.20500       15.62100
H          4.99500       10.71400       15.45800
H          5.33100        9.15500       15.33300
C          5.32200        8.24000       20.01800
C          4.34700        8.74600       20.87500
C          3.10200        8.12000       20.92800
H          2.43100        8.45600       21.51200
C          2.83400        7.01700       20.14300
H          1.97600        6.60900       20.17900
C          3.80200        6.50200       19.30700
H          3.61700        5.73500       18.77800
C          5.04800        7.11500       19.24700
H          5.72000        6.76300       18.67300
C          3.75900       11.03700       21.35100
H          3.80900       11.22000       20.39000
H          4.05000       11.83000       21.84800
H          2.83500       10.81800       21.59600
C          4.57900        9.61500       23.11700
H          5.17200        8.86000       23.31900
H          3.66100        9.38600       23.37200
H          4.87300       10.40300       23.62100
C         10.02700       10.48400       17.04100
H         10.01900       10.65400       16.07500
H         10.91700       10.68500       17.39900
H          9.36300       11.05600       17.47900
C          9.08300        6.25100       17.47000
C         10.33500        6.75600       17.88700
H         10.95300        6.15800       18.39400
C         10.62500        8.12400       17.80500
H         11.45500        8.46800       18.24600
C          9.69600        9.04500       17.29900
C          8.41500        8.52700       16.96300
H          7.67500        9.17400       16.77500
C          8.10700        7.14800       17.01300
H          7.16600        6.83900       16.87500
C          8.73300        4.77500       17.50700
H          7.81200        4.70400       17.89200
C          8.66100        4.22900       16.07700
H          8.06100        4.79100       15.54200
H          8.31700        3.31100       16.09400
H          9.55800        4.23600       15.68000
C          9.64100        3.93300       18.37200
H          9.65900        4.30000       19.28200
H         10.54600        3.94100       17.99900
H          9.30500        3.01300       18.39600
Cl        13.32100        5.59100        4.67300
Cl        14.05900        9.56700       18.10700
