88
C:\Users\Javier\OneDrive - Universitat de Barcelona\Tesi\4 - Contribucions\Treballs\3-PhD\chapter_1\cif\pcp\NUZYEN.pcp.pdb
Ru         5.76800        2.96900        2.63900
Cl         6.60300        3.35500        4.94100
Cl         7.75500        4.23900        1.83800
P          3.76300        2.15500        3.20000
P          4.76400        2.34700        0.76000
N          4.82000        4.85800        2.94400
H          5.41000        5.33800        3.47800
N          4.79600        0.98000        5.88200
H          5.20100        1.56200        5.36200
N          7.05000        1.28400        2.17400
H          7.78400        1.65900        1.74200
N          6.83300        3.51600       -1.15900
H          6.99500        3.13300       -0.38300
C          3.10500        1.95100        1.47800
H          2.79900        1.03100        1.27900
H          2.40600        2.61100        1.24400
C          2.92200        3.60400        3.91200
C          3.56800        4.82200        3.70800
C          3.03600        5.99200        4.23900
H          3.46100        6.82600        4.07400
C          1.88800        5.93900        5.00700
H          1.53600        6.73700        5.38200
C          1.24400        4.73300        5.23400
H          0.45700        4.70400        5.76500
C          1.75500        3.56700        4.68100
H          1.31000        2.74000        4.82600
C          4.65300        5.68400        1.71500
H          4.36600        6.58800        1.96500
H          3.97500        5.27600        1.13700
H          5.50600        5.73300        1.23500
C          3.10000        0.76400        4.17200
C          3.65300        0.40900        5.42800
C          3.00500       -0.61200        6.16900
H          3.33600       -0.84700        7.02900
C          1.91000       -1.26600        5.66700
H          1.50700       -1.95700        6.17900
C          1.38400       -0.94400        4.44200
H          0.63200       -1.41200        4.09800
C          1.97800        0.08300        3.71400
H          1.60300        0.32600        2.87500
C          5.39400        0.68900        7.17100
H          6.24200        1.17300        7.25600
H          5.55900       -0.27500        7.24400
H          4.78500        0.97100        7.88500
C          5.51600        0.73200        0.38800
C          6.52400        0.30200        1.22600
C          7.14700       -0.92600        0.98700
H          7.84500       -1.22800        1.55700
C          6.74200       -1.69800       -0.08500
H          7.16500       -2.53300       -0.24500
C          5.73700       -1.27800       -0.92200
H          5.46600       -1.82300       -1.65300
C          5.12300       -0.05600       -0.69600
H          4.43500        0.24500       -1.27900
C          7.62000        0.59200        3.34900
H          8.18800       -0.14900        3.04800
H          6.89400        0.24200        3.90500
H          8.15700        1.22300        3.87100
C          4.45800        3.07600       -0.87800
C          5.54900        3.53500       -1.66300
C          5.27800        3.96000       -2.97500
H          5.99600        4.24700       -3.52900
C          3.99700        3.97100       -3.47500
H          3.84600        4.26000       -4.36800
C          2.92300        3.56900       -2.69900
H          2.03800        3.60200       -3.04100
C          3.17100        3.11500       -1.40500
H          2.44300        2.82500       -0.87000
C          7.91700        4.12300       -1.90400
H          8.73300        4.11200       -1.36200
H          7.68400        5.05000       -2.12300
H          8.06700        3.62000       -2.73000
Cl         7.49000        0.34000       10.27000
Cl         9.60500       -0.39300       12.02400
C          8.54200       -0.89000       10.81300
H          8.00000       -1.64500       11.15400
H          9.06800       -1.22300       10.04300
C          8.14400        1.01600        3.01900
H          8.51000        0.10800        2.99300
H          8.22300        1.37400        3.92700
H          8.64300        1.58900        2.39800
H          6.27700        0.46100        3.25100
N          6.72400        0.98400        2.62300
Cl         9.24000       -0.34000       11.97900
Cl         7.12500        0.39300       10.22600
C          8.18800        0.89000       11.43600
H          8.73000        1.64500       11.09600
H          7.66200        1.22300       12.20600
