83
C:\Users\Javier\OneDrive - Universitat de Barcelona\Tesi\4 - Contribucions\Treballs\3-PhD\chapter_1\cif\pcp\ODIWIJ.pcp.pdb
Rh         3.95600        3.12600        5.34600
P          4.62800        5.05000        6.50800
N          6.52700        6.49700        4.72600
C          6.22400        5.29800        5.45900
H          7.02500        5.00800        5.98300
P          5.73600        3.97500        4.27400
C          5.47400        5.24200        3.02600
C          4.86300        5.10900        1.78100
H          4.49800        4.27300        1.51700
C          4.78900        6.19800        0.93200
H          4.35900        6.12300        0.08800
C          5.35300        7.40400        1.32700
H          5.31400        8.14300        0.73300
C          5.96900        7.57000        2.55700
H          6.35100        8.40400        2.80000
C          6.01500        6.47500        3.43200
C          7.30400        7.59800        5.29700
H          7.11800        7.63600        6.26900
H          6.97600        8.44400        4.90200
C          8.84100        7.53900        5.10200
C          9.18700        7.59500        3.61800
H         10.16100        7.55900        3.50900
H          8.84700        8.43000        3.23400
H          8.77800        6.83200        3.15800
C          9.40900        8.77900        5.80600
H          9.21000        8.73000        6.76400
H          8.99900        9.58500        5.42800
H         10.37900        8.81300        5.67500
C          9.42700        6.27700        5.70100
H          9.04700        5.49400        5.24700
H          9.21100        6.23600        6.65500
H         10.39900        6.28000        5.58400
C          5.37600        4.79100        8.23100
C          6.09600        3.44200        8.18200
H          6.50600        3.25800        9.05300
H          6.79100        3.46800        7.49300
H          5.45100        2.73600        7.97000
C          4.29800        4.74100        9.31600
H          3.54700        4.19400        9.00500
H          3.98400        5.65000        9.50600
H          4.67300        4.34800       10.13100
C          6.40400        5.86600        8.61000
H          5.96500        6.74100        8.64300
H          7.12000        5.88400        7.94000
H          6.78500        5.65900        9.48800
C          3.47200        6.54100        6.40900
C          2.90200        6.55500        4.99200
H          2.22900        7.26300        4.91700
H          2.48900        5.68800        4.79900
H          3.62500        6.72200        4.35100
C          2.29700        6.35500        7.38300
H          2.61100        6.48900        8.30200
H          1.93600        5.45000        7.29100
H          1.59700        7.00800        7.17800
C          4.13400        7.88600        6.71300
H          3.47200        8.60400        6.62500
H          4.86800        8.03900        6.08200
H          4.48700        7.87800        7.62700
C          2.70800        2.02500        6.89400
H          2.96900        2.44400        7.66800
C          1.87200        2.72400        6.10400
H          1.62200        3.56100        6.40200
C          1.07300        2.18300        4.96700
H          0.76000        2.94100        4.41300
H          0.27200        1.72900        5.33300
C          1.81100        1.21400        4.08300
H          1.36300        1.18100        3.20100
H          1.75600        0.31000        4.48300
C          3.27600        1.57200        3.87700
H          3.53900        1.91800        3.07800
C          4.28600        1.07600        4.64600
H          5.12400        1.07500        4.32900
C          4.11700        0.17400        5.83500
H          4.96400        0.17100        6.34800
H          3.96300       -0.74800        5.50900
C          2.97700        0.54900        6.78400
H          2.15000        0.10100        6.47700
H          3.18900        0.20000        7.68600
B          7.95200        2.34600        4.49200
O          6.93900        3.11900        3.72500
F          8.71500        1.64000        3.58100
F          8.74800        3.21600        5.20200
F          7.34300        1.48100        5.37500
