94
C:\Users\Javier\OneDrive - Universitat de Barcelona\Tesi\4 - Contribucions\Treballs\3-PhD\chapter_1\cif\pcp\OMAVOQ.pcp.pdb
C          6.32000        1.33800       20.41700
C          6.11100        2.00900       21.55000
H          5.25400        2.06200       21.90900
H          6.82200        2.42300       21.98400
C          6.66900        1.05000       15.97200
C          5.48000        0.28900       16.07100
H          4.66300        0.73400       16.10500
C          5.49100       -1.13900       16.12100
H          4.69100       -1.61200       16.13600
C          6.72000       -1.82400       16.15000
C          7.93300       -1.06200       16.08600
H          8.75200       -1.50100       16.11600
C          7.90200        0.33700       15.98000
H          8.70100        0.80800       15.91400
C          6.63000        2.54800       15.84200
H          6.69000        2.79100       14.91500
H          7.36700        2.93000       16.32200
H          5.80500        2.87900       16.20600
C          6.82700       -3.32900       16.27800
H          7.56300       -3.51800       16.89700
C          5.57400       -3.99700       16.84000
H          5.33000       -3.57500       17.66700
H          5.75000       -4.92800       16.99600
H          4.85500       -3.90900       16.21200
C          7.20800       -3.92500       14.91900
H          6.50100       -3.76300       14.29000
H          7.34400       -4.87100       15.01100
H          8.01700       -3.51400       14.60600
C          4.22200       -0.80600       20.31300
C          3.45100       -1.74600       19.62100
H          3.44100       -1.74100       18.69100
C          2.69700       -2.68700       20.31700
H          2.17600       -3.30200       19.85400
C          2.72700       -2.70600       21.70700
H          2.21100       -3.32400       22.17500
C          3.52100       -1.81000       22.39700
H          3.55700       -1.84400       23.32600
C          4.26900       -0.85600       21.71200
H          4.79900       -0.25200       22.18100
C          3.91300        1.64600       18.76200
C          2.75300        1.20500       18.11200
H          2.54500        0.29900       18.09800
C          1.91300        2.12400       17.48600
H          1.14900        1.82600       17.04800
C          2.20700        3.47600       17.51300
H          1.65000        4.08300       17.08200
C          3.33300        3.92300       18.18100
H          3.51800        4.83300       18.22200
C          4.18900        3.01000       18.78900
H          4.95500        3.31400       19.22100
C          9.20300        0.47900       20.24600
C         10.11900       -0.33600       19.58000
H          9.95500       -0.60900       18.70600
C         11.28100       -0.73800       20.23500
H         11.90700       -1.26200       19.78800
C         11.51000       -0.36000       21.55200
H         12.27800       -0.64600       21.99000
C         10.59100        0.44600       22.21400
H         10.74200        0.69300       23.09800
C          9.44800        0.88500       21.55700
H          8.84800        1.44800       21.99000
C          8.40300        2.79100       18.89900
C          9.53700        2.85600       18.07700
H          9.92400        2.07300       17.75700
C         10.08400        4.08800       17.73900
H         10.82800        4.12600       17.18400
C          9.52500        5.26400       18.22600
H          9.90200        6.08600       18.00800
C          8.40400        5.20200       19.03800
H          8.02300        5.98700       19.36000
C          7.84300        3.97300       19.37500
H          7.09000        3.94200       19.92100
P          5.13900        0.43500       19.35700
P          7.78200        1.13700       19.33400
Cl         7.17500       -1.94600       19.39500
Ru         6.71000       -0.23300       17.79900
O         -3.23600        1.82500       12.80400
F         -2.26600        4.42100       13.20700
F         -1.80900        3.15200       14.82100
F         -0.29800        3.92400       13.46000
C         -1.47700        3.41600       13.55800
O         -0.86500        0.98600       12.95600
O         -1.55600        2.51300       11.19000
S         -1.82300        1.96400       12.48800
O         -0.49300       -0.59600       13.04200
H         -1.07000       -0.83000       13.61900
H         -0.38300       -0.75300       13.87700
F         -1.05800        2.37700       14.73200
F         -2.13800        4.20100       14.47600
F         -0.15900        3.81900       13.61000
C         -1.37300        3.31200       13.85300
O         -2.35900        3.88900       11.55900
O         -1.12400        1.85000       11.82800
S         -2.14500        2.71400       12.34900
