166
C:\Users\Javier\OneDrive - Universitat de Barcelona\Tesi\4 - Contribucions\Treballs\3-PhD\chapter_1\cif\pcp\OVETAL.pcp.pdb
C          5.50000       10.16400        3.78800
C          5.50300        9.49600        2.51000
C          5.39600        8.13100        2.54300
H          5.30900        7.68900        1.72900
C          5.40600        7.34300        3.70500
H          5.42700        6.41400        3.68000
C          5.38300        8.07900        4.92700
H          5.28700        7.60900        5.72400
C          5.49300        9.44200        4.98300
H          5.56100        9.87900        5.80200
C          5.43900       11.59200        3.82100
H          5.93700       11.92100        4.59700
C          4.02900       12.04500        3.91300
H          4.00200       13.00600        3.93500
H          3.63300       11.69600        4.71300
H          3.54000       11.73100        3.14900
C          7.59400       11.81600        2.74200
H          8.06300       12.08800        1.95000
H          7.72600       10.87600        2.88500
H          7.93100       12.30400        3.49600
C          5.89400       13.57500        2.29600
H          6.33900       13.80500        1.47800
H          6.27000       14.08400        3.01800
H          4.95800       13.77300        2.22000
C          3.94400       10.76000       -1.51200
C          2.78100       10.74100       -2.16700
H          2.35900       11.54000       -2.38900
H          2.39300        9.92900       -2.40300
C          3.62400        8.05500       -0.32500
C          2.48200        8.22100        0.49400
H          2.32300        9.05200        0.88100
C          1.66600        7.27400        0.71900
H          0.86000        7.47600        1.13700
C          1.92300        5.92600        0.36400
H          1.39900        5.20600        0.63400
C          3.03400        5.81300       -0.42600
H          3.22200        4.95800       -0.74000
C          3.86100        6.74100       -0.79400
H          4.58400        6.55100       -1.34700
C          6.10000        8.79500       -1.60600
C          7.32500        8.65400       -1.11800
H          7.46800        8.89900       -0.23300
C          8.41700        8.16200       -1.84300
H          9.25600        8.03800       -1.46400
C          8.15700        7.88700       -3.13100
H          8.85300        7.55400       -3.64900
C          6.89800        8.06400       -3.75700
H          6.75600        7.86800       -4.65400
C          5.91000        8.54500       -2.94900
H          5.07400        8.71000       -3.32000
C          6.23800       12.34100       -2.13700
C          7.62600       12.02100       -1.70400
H          7.82900       11.77300       -0.83100
C          8.60700       12.11900       -2.69500
H          9.50900       12.05800       -2.47600
C          8.18900       12.32100       -4.08700
H          8.85400       12.40200       -4.73200
C          6.95800       12.39500       -4.48000
H          6.73500       12.49300       -5.37800
C          5.98000       12.31500       -3.47900
H          5.09200       12.24000       -3.74600
C          3.95100       13.62900       -1.00600
C          4.34300       14.73200       -1.68700
H          5.11200       14.75000       -2.21000
C          3.44800       15.91200       -1.53700
H          3.68100       16.71500       -1.94600
C          2.37400       15.85300       -0.86100
H          1.79800       16.58200       -0.90100
C          1.98900       14.75900       -0.05300
H          1.27200       14.81700        0.53700
C          2.75000       13.57000       -0.18700
H          2.49200       12.78200        0.23400
C          0.89700       15.97100      -11.56800
C          1.46700       16.55000      -10.44100
C          1.93300       17.86400      -10.52700
H          2.25100       18.27600       -9.75700
C          1.93900       18.57600      -11.71900
H          2.24000       19.45500      -11.75400
C          1.49000       17.94900      -12.82200
H          1.54800       18.37800      -13.64400
C          0.93700       16.65400      -12.76000
H          0.59800       16.26000      -13.53000
C         -1.16700       14.76500      -10.93000
H         -1.56500       13.89500      -10.84400
H         -1.65300       15.27700      -11.57900
H         -1.19300       15.21300      -10.08200
C          0.38800       12.62600       -9.90700
H         -0.45300       12.85600       -9.50600
H          0.94100       12.18000       -9.26000
H          0.23600       12.04200      -10.65400
C          2.36400       13.48100      -11.01300
H          2.79200       14.27600      -11.33500
H          2.20300       12.88300      -11.74900
H          2.93100       13.05000      -10.36900
C          2.90300       15.34400       -6.22800
C          3.98000       15.32900       -5.51400
H          4.49900       16.09700       -5.43900
H          4.23700       14.55000       -5.07500
C          0.58400       13.86200       -5.64600
C         -0.69500       14.10100       -6.06600
H         -0.89300       14.06700       -6.97300
C         -1.72800       14.40000       -5.12500
H         -2.55100       14.71500       -5.42100
C         -1.50700       14.22600       -3.83200
H         -2.19100       14.35800       -3.21500
C         -0.16500       13.82300       -3.38500
H         -0.01200       13.62000       -2.49000
C          0.83700       13.75100       -4.27700
H          1.71000       13.62700       -3.97900
C          2.84200       12.39900       -6.72500
C          4.03900       12.22100       -7.33000
H          4.35900       12.91900       -7.85400
C          4.78900       11.14400       -7.23700
H          5.63800       11.13700       -7.61700
C          4.33900       10.06000       -6.60200
H          4.84900        9.28300       -6.59800
C          3.06400       10.08400       -5.91600
H          2.75400        9.34800       -5.43900
C          2.32900       11.25400       -6.00200
H          1.49600       11.30300       -5.59100
C          0.76900       17.30700       -6.20900
C         -0.45900       17.49400       -6.79500
H         -0.59200       17.35500       -7.70400
C         -1.50200       17.90600       -5.95500
H         -2.30700       18.12300       -6.36700
C         -1.46100       18.01700       -4.65700
H         -2.22700       18.06700       -4.13000
C         -0.26200       18.05400       -4.16000
H         -0.16600       18.40000       -3.30200
C          0.30200       14.61300      -11.38800
H          0.32700       14.13400      -12.24100
C          0.91700       17.60800       -4.82200
H          1.73100       17.52100       -4.38000
C          3.38200       17.98600       -7.44700
C          3.13000       19.23400       -7.03900
H          2.34100       19.41800       -6.58300
C          4.08500       20.32400       -7.30300
H          3.96400       21.19700       -7.00300
C          5.14800       19.93000       -8.02000
H          5.77300       20.59200       -8.20600
C          5.42200       18.77600       -8.48200
H          6.14700       18.63500       -9.04600
C          4.53100       17.67700       -8.07500
H          4.75500       16.79100       -8.24800
N          6.07600       12.10600        2.57300
N          1.05700       13.84000      -10.36800
F          8.88700       14.24100       -7.91800
F          7.96000       16.19300       -8.50600
F          7.11900       13.21500       -8.71700
F          8.26600       14.46000       -9.95600
F          6.28800       15.04200       -9.35700
F          6.80600       14.68300       -7.32600
F         -0.74600       12.72100        1.30400
F         -0.35900       11.51400       -0.45900
F         -2.23800       11.46400        0.28300
F         -1.51900       10.81100        2.25300
F          0.46200       11.08000        1.65000
F         -0.81100        9.85100        0.56500
P          4.74600        9.40700       -0.58600
P          4.97000       12.13800       -0.90400
P          1.88900       13.94200       -6.84800
P          2.14100       16.66500       -7.18700
P          7.60300       14.71900       -8.65400
P         -0.89700       11.25000        0.87200
Pd         5.42300       10.80200        1.03100
Pd         1.53300       15.25600       -8.83700
