277
C:\Users\Javier\OneDrive - Universitat de Barcelona\Tesi\4 - Contribucions\Treballs\3-PhD\chapter_1\cif\pcp\PEFPUO.pcp.pdb
Rh        11.73100        4.55300       12.15100
P         11.76900        4.22600        9.93500
P         11.80600        2.33400       11.82000
C         10.42000        1.29200       12.43800
H         10.53500        0.38900       12.07300
C          9.31500        0.28600       14.47300
H          9.45100       -0.61700       14.14700
H          9.33300        0.26200       15.44200
C         13.24600        4.72000        8.94900
H         13.13300        4.35400        8.04700
C          9.05900        1.81300       11.98000
H          9.03400        1.84300       11.01000
H          8.93000        2.71600       12.31200
C         14.55400        4.15800        9.51200
H         14.69600        4.50000       10.40700
H         14.49600        3.19200        9.56400
C         10.44200        1.19100       13.96200
H         10.34300        2.07600       14.34400
H         11.29600        0.83400       14.24800
C         15.82700        6.04600        8.44300
H         16.54400        6.25400        7.82500
H         16.04000        6.46100        9.29500
C         10.35300        4.98200        8.92100
H         10.41900        5.95600        9.01300
C          7.95600        0.80200       13.99900
H          7.25900        0.19400       14.29200
H          7.78300        1.67100       14.39300
C          7.93300        0.91400       12.49300
H          7.07800        1.27800       12.21000
H          8.02300        0.03100       12.10300
C         11.68400        2.40400        9.95600
H         12.43300        1.98200        9.50800
H         10.84300        2.05700        9.61500
C         13.34200        6.23100        8.82000
H         13.46100        6.62600        9.69700
H         12.51800        6.57800        8.44100
C         14.52300        6.61400        7.91600
H         14.36500        6.27600        7.02100
H         14.58900        7.58000        7.86600
C         10.40300        4.66700        7.42700
H         10.36300        3.70600        7.29900
H         11.24200        4.98400        7.05800
C         15.73400        4.55200        8.62100
H         16.55500        4.22400        9.01700
H         15.63200        4.13400        7.75300
C          7.83800        5.25200        8.75000
H          6.99000        4.94700        9.11000
H          7.89400        6.21000        8.88300
C         15.68400        1.21800       13.22900
H         16.49900        1.72900       13.34900
H         15.39900        0.89400       14.09900
C          8.98700        4.56300        9.49200
H          8.88800        3.60000        9.41600
H          8.94700        4.79400       10.43300
C         14.58400        2.11800       12.62000
H         14.44900        2.89600       13.18300
H         14.86500        2.42700       11.74300
C          9.23100        5.33400        6.67800
H          9.33200        6.29900        6.71800
H          9.25100        5.06700        5.74700
C          7.89300        4.94900        7.27900
H          7.18500        5.43400        6.82600
H          7.74100        4.00000        7.14200
C         13.28500        1.34700       12.49700
H         13.04100        1.07200       13.40600
C         13.51700        0.07200       11.71700
H         13.72000        0.30100       10.79800
H         12.70000       -0.45000       11.71900
C         14.68100       -0.80400       12.29200
H         14.46600       -1.09800       13.19100
H         14.81600       -1.58600       11.73700
C         15.93800        0.05600       12.30600
H         16.69300       -0.46300       12.62000
H         16.13400        0.37600       11.41000
C         11.66300        4.92100       14.42100
H         11.67300        4.24300       15.05800
C         11.63800        6.80000       12.38400
C         10.42100        6.32100       12.88700
H          9.61400        6.63100       12.54300
C         12.87000        5.47900       13.97700
C         10.43100        5.38100       13.90800
H          9.63000        5.05600       14.25000
F         11.70700        7.70300       11.45400
C         12.86000        6.41300       12.94900
F         13.97200        6.97400       12.56300
F         14.00700        5.16900       14.53500
Al         9.28400       11.98300        7.97100
O          8.11400       11.02200        7.19800
C          6.84000       10.67300        6.91700
O          9.02000       13.53600        7.36100
O          9.10400       11.94100        9.67400
F          4.61800       11.01700        7.66700
F         11.10300       16.41600        7.41700
F          5.99000       12.41400        8.36400
F          5.25200       10.54300        5.20600
F          5.66300        8.58400        7.05400
F         11.21900       14.74100        5.99800
F          8.53600       16.85800        8.42000
F          7.57000       14.95500        8.94900
F          7.35900        8.70900        5.74900
F          7.20300       11.13500        4.55500
F         11.47000       14.39900        8.07100
F          7.65400        8.75900        7.86800
F          8.67700       14.60000        5.02700
F          9.00500       16.62200        5.72500
F          7.22500       15.53500        6.31600
C          5.88800       11.13100        8.03700
F          6.07900       10.43200        9.14400
F          9.56800       15.37900        9.59200
C         10.78800       15.14100        7.19400
C          8.67600       15.53300        8.55700
C          8.53400       15.40500        6.05300
C          6.84500        9.16900        6.88500
F          5.89800       12.46100        5.62600
C          6.35000       11.21700        5.57400
C          9.40400       11.62500       10.90500
C          8.79000       10.14100       11.23500
F          7.49700       10.16400       11.38700
F          9.29800        9.64600       12.31800
F          9.14800        9.47400       10.15900
C         10.92200       11.57700       11.16000
F         11.47900       12.62400       10.58500
F         11.46800       10.48200       10.70000
F         11.25000       11.59400       12.40900
C          8.63600       12.62800       11.76500
F          9.34500       13.72900       11.81600
F          8.54500       12.28100       13.01000
F          7.43900       12.82500       11.25700
C          9.26300       14.85200        7.32100
O         10.83500       11.31800        7.60400
C         11.63600       10.65900        6.75600
C         11.63200       11.27000        5.33700
F         10.48200       11.56400        4.86700
F         12.15500       10.41100        4.44200
F         12.34700       12.38000        5.32100
C         13.06800       10.69100        7.34500
F         13.19500        9.87000        8.37200
F         13.41500       11.83100        7.79300
F         13.96400       10.28100        6.39800
C         11.16200        9.18300        6.67800
F         10.79400        8.73300        7.87800
F         12.05700        8.33600        6.24600
F         10.10400        9.06100        5.89400
C         13.20400       -0.06600       11.51200
H         12.78700       -0.16900       10.64200
H         12.64300       -0.49500       12.17500
C         13.38000        1.41000       11.84200
H         13.90600        1.77900       11.10400
C         14.62100       -0.70700       11.51000
H         14.51800       -1.66700       11.41600
H         15.09500       -0.39100       10.72400
C         15.48000       -0.44200       12.71000
H         16.36400       -0.81500       12.56500
H         15.09300       -0.87800       13.48800
C          8.39500       11.96600       11.91000
F          7.66600       13.03900       11.70100
F          8.78900       11.98300       13.19900
F          7.50200       10.95500       11.83600
C         10.06900       10.29600       11.04400
F         11.27500       10.23800       10.47300
F          9.25400        9.22800       10.67200
F         10.18500        9.90800       12.31400
C         10.65000       12.75800       11.24700
F         11.45100       12.87000       10.21600
F         11.29600       12.39800       12.29800
F         10.18800       13.94400       11.51800
C         15.59400        1.05800       12.97100
H         16.08300        1.47400       12.24400
H         16.09000        1.20500       13.79000
C         14.16500        1.72900       13.09200
H         13.70300        1.38400       13.87200
H         14.25700        2.68900       13.18900
C         10.21900        4.37200        9.01800
H          9.61800        3.67100        9.34500
C         10.50100        4.08200        7.56600
H         10.84400        3.18100        7.46400
H         11.16000        4.70300        7.22000
C          9.18100        4.23500        6.81200
H          9.36200        4.17900        5.85800
H          8.60300        3.49200        7.04400
C          8.45000        5.51700        7.08400
H          7.57100        5.47700        6.67600
H          8.93400        6.25500        6.68000
C          8.29800        5.77500        8.56900
H          7.67000        5.13200        8.93100
H          7.92100        6.65900        8.69400
C          9.60300        5.68300        9.36100
H         10.19500        6.41100        9.12000
H          9.42200        5.73400       10.31400
C          6.77500       10.41000        5.40500
F          7.49900       11.35600        4.83200
F          7.25200        9.23500        5.03500
F          5.53100       10.41300        4.87300
F          7.37100        8.39600        7.57600
F          5.34400        8.87800        7.02100
F          4.63500       11.40300        7.42500
C          6.45400        9.34600        7.61400
F          6.29700       12.25800        8.53500
C          5.89800       11.75500        7.33300
F          6.07400       12.77100        6.46900
F          6.20600        9.52900        8.91500
F         13.97200        6.97400       12.56300
F         14.00700        5.16900       14.53500
F         11.76100        4.19800       15.38200
F         11.76100        4.19800       15.38200
F          9.48100        5.05100       14.33600
F          9.37900        6.82900       12.30600
F          9.48100        5.05100       14.33600
F          9.37900        6.82900       12.30600
F         11.70700        7.70300       11.45400
F          9.37900        6.82900       12.30600
F         11.70700        7.70300       11.45400
F         13.97200        6.97400       12.56300
O          9.25700       13.69500        7.83600
C          9.20000       14.90200        7.24700
C          8.49700       14.85700        5.86800
F          8.87600       15.90600        5.15600
F          7.19700       14.71500        6.04200
F          8.87500       13.80100        5.20400
C          8.44100       15.91800        8.12700
F          9.13900       16.20000        9.24900
F          7.31200       15.49300        8.57700
F          8.28500       17.08000        7.55400
C         10.56900       15.58200        7.04600
F         11.28900       15.33300        8.12900
F         10.47300       16.89200        6.95500
F         11.10400       15.16900        5.91800
C         11.63800        6.80000       12.38400
H         11.63400        7.38500       11.66100
C         12.86000        6.41300       12.94900
C         12.87000        5.47900       13.97700
C         11.66300        4.92100       14.42100
C         10.43100        5.38100       13.90800
H          9.63000        5.05600       14.25000
C         10.42100        6.32100       12.88700
H          9.61400        6.63100       12.54300
C         11.63800        6.80000       12.38400
H         11.63400        7.38500       11.66100
C         12.86000        6.41300       12.94900
H         13.65700        6.77600       12.63800
C         12.87000        5.47900       13.97700
H         13.67400        5.22500       14.37000
C         11.66300        4.92100       14.42100
C         10.43100        5.38100       13.90800
C         10.42100        6.32100       12.88700
C         11.63800        6.80000       12.38400
C         12.86000        6.41300       12.94900
H         13.65700        6.77600       12.63800
C         12.87000        5.47900       13.97700
H         13.67400        5.22500       14.37000
C         11.66300        4.92100       14.42100
H         11.67300        4.24300       15.05800
C         10.43100        5.38100       13.90800
C         10.42100        6.32100       12.88700
C         11.63800        6.80000       12.38400
C         12.86000        6.41300       12.94900
C         12.87000        5.47900       13.97700
H         13.67400        5.22500       14.37000
C         11.66300        4.92100       14.42100
H         11.67300        4.24300       15.05800
C         10.43100        5.38100       13.90800
H          9.63000        5.05600       14.25000
C         10.42100        6.32100       12.88700
O         10.76900       11.64200        7.21200
C         11.66600       10.81600        6.62300
C         11.17900       10.69400        5.16000
F         10.21000        9.77300        5.06000
F         12.05300       10.54300        4.25500
F         10.32300       11.67100        5.12000
C         13.01200       11.54400        6.78800
F         12.94000       12.31100        7.86800
F         13.22500       12.42700        5.84100
F         14.09900       10.83900        6.73800
C         11.70300        9.38300        7.17400
F         12.27400        9.31400        8.35000
F         12.46100        8.68000        6.34800
F         10.47400        8.92200        7.36900
