166
C:\Users\Javier\OneDrive - Universitat de Barcelona\Tesi\4 - Contribucions\Treballs\3-PhD\chapter_1\cif\pcp\PEFQAV.pcp.pdb
Rh         7.22000       11.06600        6.37600
P          6.74000       13.26300        6.28000
P          6.09600       11.43100        4.46400
F          6.81600        7.89300        4.53900
F         11.45400        5.54700       10.87200
F         10.30600        6.00400        9.13200
F          8.95200       16.85600        9.17200
F          5.69100        9.09200       10.23000
F         14.13300       11.05200       12.20100
F         15.92900       13.51600        6.49900
F         12.41100        5.73100        8.97000
F         10.96200       16.43800        8.56400
F         14.67100       14.54800        7.86700
F         10.56000       17.00200       10.59100
F          8.94200        8.08900        4.44100
F          5.24100       11.07300        9.61200
F          4.40900        9.40200        8.60500
F         15.49700       12.67700        8.43800
F         11.57100       10.44600        3.38500
F         12.58000       10.36900       13.45500
F          8.07900        6.66200        5.74000
F         14.20600        9.07800       12.99300
F         11.74500       12.52200        2.86700
C         12.75600       12.23800        7.73000
H         12.88400       12.36800        8.64100
C         11.56200       11.65600        7.29500
C         11.17900       10.04200        9.37500
C          9.49600       12.22200       10.66500
H          9.38500       11.34100       10.94300
C         11.04400        8.67400        9.18100
H         10.51900        8.37700        8.47300
C         10.07300       12.46500        9.40900
C         13.76800       12.63400        6.85100
C         10.26200       13.79700        9.08500
H         10.65300       14.00400        8.26800
F         13.49300       11.24200        2.99900
C         11.45700       11.50100        5.91100
H         10.67000       11.15200        5.56100
C          6.32600       14.30700        8.82000
H          6.97700       13.63700        9.08300
H          6.80300       15.12200        8.59600
C          6.69800        8.97400        7.14400
H          5.94500        8.47900        6.91100
C          6.69600        9.83800        8.25900
C          7.88800        8.89300        6.39500
C          9.88900       14.84500        9.93200
C         12.47200        8.13200       11.05600
H         12.90200        7.50900       11.59500
C         12.00400       10.40800       10.45400
H         12.13900       11.31200       10.62100
C         12.47900       11.84800        5.03200
C         12.62200        9.48600       11.28200
C         11.65800        7.72300       10.00000
C          5.91000       13.25000        4.62200
H          4.98500       13.54000        4.65400
H          6.39900       13.74600        3.94600
C          9.05100        9.60300        6.76200
H          9.83300        9.46600        6.27300
C          8.07500       14.53900        6.14800
H          8.50500       14.60600        7.02600
C          9.09000       13.23600       11.49700
C          5.54400       13.81300        7.59400
H          5.07400       13.00400        7.88200
C          9.07200       10.51300        7.83900
C          9.26900       14.55900       11.15400
H          8.98500       15.24200       11.71700
C          9.14200       14.07200        5.14500
H          8.74200       13.96600        4.26800
H          9.49400       13.21100        5.42200
C          7.53900       15.93200        5.78700
H          7.05100       15.88600        4.95100
H          6.92200       16.23100        6.47600
C          5.36900       14.57700        9.99300
H          4.96700       13.74100       10.27900
H          5.87100       14.93800       10.74000
C          7.81600       10.62800        8.54100
H          7.74700       11.26200        9.21700
C          6.75800       11.40100        0.30700
H          6.39200       10.51600        0.15100
H          6.44100       11.98500       -0.39900
C          4.27700       15.55300        9.60100
H          4.67200       16.42000        9.41500
H          3.65800       15.65700       10.33900
C         13.64000       12.43400        5.48400
H         14.31500       12.68800        4.89500
C         14.97000       13.31500        7.41700
C         10.10900       16.27000        9.56000
C         11.47100        6.28300        9.74800
C          8.68000       16.94300        5.65700
H          9.08000       17.08600        6.52700
H          8.32200       17.78900        5.34800
C         10.28600       15.09600        5.07200
H         10.72600       15.15400        5.93600
H         10.94200       14.80500        4.42000
C          6.79200       11.03900        2.80700
H          6.52200       10.12100        2.59800
C          8.46100       12.86900       12.82200
C          9.75900       16.46600        4.68000
H          9.38900       16.42500        3.78600
H         10.49100       17.10300        4.67400
B         10.45600       11.20100        8.43000
C          8.81300       10.51400        1.41000
H          9.78300       10.52900        1.38000
H          8.52300        9.59400        1.31600
C          6.26500       11.92700        1.66800
H          6.57400       12.83700        1.79600
H          5.29600       11.93300        1.68300
C          7.93300        7.87900        5.27900
C          5.50400        9.87100        9.18300
C         13.39900        9.97900       12.46400
C          4.45300       14.80300        7.17100
H          3.95000       14.44000        6.42700
H          4.85900       15.63800        6.88600
C          8.26400       11.33200        0.26200
H          8.62700       12.23100        0.30500
H          8.54200       10.93700       -0.57800
C          8.33300       11.06600        2.77500
H          8.68800       10.52200        3.49400
H          8.65000       11.97400        2.89500
C          3.65700       10.92200        5.79600
H          4.20700       10.76200        6.57800
H          3.45300       11.87200        5.76100
C          3.51500       15.05900        8.35700
H          3.04700       14.23900        8.57700
H          2.85400       15.72200        8.10600
C         12.29200       11.58200        3.56000
C          2.25700        9.90700        3.43600
H          1.70400       10.07200        2.65800
H          2.45300        8.95800        3.47100
C          4.43200       10.52200        4.53700
H          4.63400        9.56500        4.61800
C          1.49500       10.30900        4.68800
H          1.22400       11.23900        4.61800
H          0.69700        9.76800        4.77200
C          3.55500       10.68900        3.31300
H          4.03900       10.38100        2.52800
H          3.35200       11.62900        3.18900
C          2.35900       10.12800        5.91500
H          2.56700        9.18600        6.02800
H          1.87100       10.42300        6.70000
F          9.43200       12.68900       13.74800
F          7.72900       13.87800       13.30600
F          7.73400       11.77800       12.82000
F          8.06000       13.89700       13.58100
F          7.32400       12.16100       12.58900
F          9.18600       12.05500       13.59200
C          4.28800       11.08400        4.25300
H          3.92000       11.73500        3.62000
C          2.14700       10.95500        5.54200
H          1.68800       11.63600        5.02600
H          1.78200       10.96900        6.44000
C          3.62700       11.30500        5.61000
H          4.06200       10.75200        6.27800
H          3.72900       12.23300        5.87200
C          4.04600        9.67800        3.69400
H          4.46600        9.58900        2.82400
H          4.42800        9.01300        4.28700
C          1.86100        9.59400        4.91900
H          2.17700        8.89500        5.51200
H          0.90500        9.48400        4.80600
C          2.54800        9.46600        3.57100
H          2.18000       10.12100        2.95900
H          2.37600        8.58400        3.20600
F         13.31500       11.98300        2.81600
F         11.24900       12.36800        3.09500
F         11.92600       10.36900        3.21000
