376
C:\Users\Javier\OneDrive - Universitat de Barcelona\Tesi\4 - Contribucions\Treballs\3-PhD\chapter_1\cif\pcp\PEFQID.pcp.pdb
Rh        10.31500       14.94500       10.61000
P         10.67200       12.92700        9.71900
P          9.47900       13.44100       12.02200
C         12.40500       12.39200        9.33900
H         12.38800       11.43600        9.12500
C         10.14600       13.50800       13.75400
H          9.98300       14.41400       14.08900
C          7.65900       13.29400       12.22900
H          7.48700       12.54700       12.83900
C         13.30800       12.59000       10.56200
H         12.98000       12.04700       11.29600
H         13.27400       13.52000       10.84000
C         10.07800       11.92200       11.16500
H          9.37000       11.30200       10.93900
H         10.79200       11.46800       11.63900
C         15.28800       12.98400        9.05600
H         15.30300       13.93200        9.26600
H         16.19600       12.70500        8.86000
C         12.96300       13.14200        8.12200
H         12.42200       12.94100        7.34200
H         12.91500       14.09700        8.28200
C         14.76100       12.20500       10.25600
H         15.31500       12.38900       11.03100
H         14.81200       11.25300       10.07100
C          9.58900       12.37300        8.33000
H          8.68900       12.30700        8.71100
C         14.41500       12.74900        7.84300
H         14.45300       11.81200        7.59600
H         14.75100       13.27100        7.09800
C          7.11400       14.56100       12.88000
H          7.29100       15.32000       12.30300
H          7.57100       14.71100       13.72100
C          9.92700       10.96700        7.84200
H          9.95900       10.35700        8.59700
H         10.80100       10.96800        7.42200
C          6.91900       13.00900       10.91800
H          7.23800       12.17600       10.53800
H          7.09800       13.71900       10.28100
C          9.46400       12.54000       14.72400
H          9.59600       11.62800       14.42100
H          8.51000       12.71700       14.74400
C         11.65700       13.29400       13.76300
H         12.07700       13.93500       13.16800
H         11.86000       12.40400       13.43700
C         11.54500       12.51100       16.14100
H         11.75300       11.59700       15.89200
H         11.88800       12.66200       17.03400
C         10.05000       12.70300       16.14200
H          9.83800       13.59000       16.47800
H          9.64200       12.05400       16.73600
C          5.60500       14.46200       13.13500
H          5.43000       13.76000       13.78200
H          5.28000       15.29900       13.50300
C          5.40400       12.91100       11.17100
H          4.94700       12.77600       10.32600
H          5.22300       12.14200       11.73300
C         12.22000       13.45900       15.17700
H         13.17500       13.28500       15.16800
H         12.08400       14.37300       15.47500
C          4.86700       14.15600       11.83600
H          3.92400       14.03600       12.02300
H          4.95800       14.90800       11.23000
C          9.46600       13.34800        7.17300
H         10.32300       13.43400        6.72500
H          9.20900       14.22000        7.50500
C          8.40400       12.83500        6.17400
H          7.53300       12.84100        6.60100
H          8.36700       13.43400        5.41200
C          8.87600       10.48500        6.83700
H          9.13400        9.61400        6.49600
H          8.02200       10.38600        7.28900
C          8.72000       11.43400        5.69500
H          8.00700       11.12600        5.11600
H          9.54200       11.45000        5.17700
C         11.19300       16.60300        9.23300
C         12.07500       16.52600       10.31500
C         11.59300       16.74100       11.57800
H         12.17200       16.73900       12.30800
C         10.23900       16.95800       11.75500
H          9.89600       16.99000       12.62100
C          9.37400       17.12800       10.68000
H          8.48500       17.36600       10.81800
C          9.86300       16.94000        9.39400
H          9.30400       17.03700        8.65500
F         11.78400       16.36500        8.07200
F         13.31100       16.34900        9.96300
Rh         9.92100       14.91800       24.10900
P          9.17200       13.36900       25.53800
P         10.33300       12.92400       23.19400
C         12.08500       12.36400       23.04900
H         12.07700       11.40200       22.86600
C          7.37700       13.32300       25.97200
H          7.22200       12.54100       26.54400
C          9.53400       11.88100       24.48000
H         10.14400       11.25100       24.89600
H          8.73600       11.42900       24.16600
C         12.84600       12.58800       24.36300
H         12.80500       13.52700       24.60300
H         12.42200       12.07700       25.07300
C         10.14300       13.11000       27.09500
H         10.94900       12.62000       26.83200
C          6.98700       14.57200       26.75700
H          7.17200       15.35800       26.22000
H          7.52700       14.62500       27.56200
C          6.49400       13.18500       24.72400
H          6.66700       13.92600       24.12200
H          6.71700       12.36200       24.26000
C          9.59200       12.54500       21.53100
H         10.09700       13.06800       20.87200
C         12.79100       13.06100       21.87800
H         12.33300       12.84400       21.05200
H         12.74800       14.02100       22.00100
C          9.43800       12.23300       28.12700
H          9.17100       11.39700       27.71600
H          8.63700       12.68100       28.44400
C          5.01400       13.17200       25.10900
H          4.47500       13.12400       24.30400
H          4.82900       12.38200       25.64000
C         14.99500       12.88500       23.07900
H         15.01200       13.83900       23.25900
H         15.91200       12.57900       22.99900
C          5.50400       14.56100       27.14000
H          5.33200       13.82600       27.75000
H          5.28000       15.38800       27.59500
C          9.73900       11.08100       21.12800
H          9.24200       10.52100       21.74600
H         10.67300       10.82300       21.17100
C         14.31400       12.16000       24.23200
H         14.78300       12.35500       25.05900
H         14.35800       11.20300       24.08300
C         14.25700       12.62600       21.77600
H         14.29800       11.68000       21.56400
H         14.68800       13.11300       21.05800
C         10.63000       14.41600       27.71900
H          9.87200       14.93500       28.02900
H         11.10600       14.93900       27.05600
C          4.62800       14.41000       25.89900
H          3.69800       14.34600       26.16800
H          4.72500       15.19500       25.33800
C         10.86800       13.23800       29.93900
H         11.48400       13.03400       30.65900
H         10.11700       13.72600       30.31600
C          7.63400       12.78300       19.98800
H          6.70500       13.04900       19.92900
H          8.14600       13.34100       19.38200
C          8.13500       12.99100       21.42000
H          8.06200       13.92800       21.66000
H          7.58800       12.47700       22.03700
C         10.37500       11.95300       29.31300
H          9.90100       11.43100       29.98100
H         11.13500       11.43200       29.00800
C          9.20700       10.87300       19.69300
H          9.75400       11.37700       19.06900
H          9.26900        9.93500       19.45900
C         11.56500       14.10000       28.90400
H         12.35400       13.64000       28.57900
H         11.85200       14.93000       29.31800
C          7.77200       11.32700       19.57700
H          7.21100       10.77700       20.14500
H          7.47100       11.21900       18.66300
C         11.58900       16.47200       23.67100
C         10.70700       16.42900       22.61400
C          9.33200       16.69800       22.77800
H          8.74800       16.66900       22.05300
C          8.87700       17.00800       24.06100
H          7.99300       17.27000       24.19100
C          9.75000       16.92900       25.15300
H          9.41800       16.99400       26.02100
C         11.10200       16.75400       24.94800
H         11.69200       16.82500       25.66500
F         12.88600       16.34500       23.55700
F         11.00900       16.16400       21.38100
F         12.47500       10.83400       19.15000
F         20.90200       16.18000       16.08900
F         12.09800       17.02600       19.21800
F         17.60300       10.73200       21.85600
F         11.68000       14.95700       18.81400
F         12.40400       16.24900       17.26700
F         19.48000        9.79500       21.71500
F         14.31400       10.34200       13.05800
F         14.71900        8.46600       13.87600
F         20.55300       16.99400       14.17400
F         16.46700       17.78700       21.41000
F         13.70700        9.14800       19.39900
F         19.75600       17.95900       15.89000
F         16.31900        9.81300       13.38900
F         12.13500        9.11600       17.96000
C         15.72300       12.07000       16.85400
C         17.19400       14.27300       16.11700
C         14.81900       11.51000       17.76000
H         14.73600       11.89100       18.60500
C         18.87300       11.22600       19.92200
F         19.33700       11.89300       22.10600
C         15.88100       15.80900       20.26300
C         15.81500       11.43700       15.60900
H         16.41500       11.76200       14.97700
C         15.93800       14.29500       18.35600
C         17.94800       12.46100       18.03500
C         18.71400       15.97600       15.23200
C         14.12800        9.80000       16.20300
H         13.60100        9.06600       15.98300
C         15.03100       10.33100       15.29300
C         17.84800       16.25900       14.17600
H         18.06100       16.90400       13.54200
C         19.89300       10.71500       19.14600
H         20.52900       10.14600       19.51200
C         17.91400       12.07000       19.37300
H         17.22700       12.38400       19.91600
C         16.56300       14.93100       19.44400
H         17.45900       14.75600       19.61700
C         18.39200       15.00700       16.18100
H         18.98500       14.84200       16.87700
C         14.04000       10.40200       17.44600
C         14.56200       16.15100       20.01800
H         14.10800       16.74100       20.57400
C         13.93900       15.58500       18.91800
C         14.61600       14.66800       18.11100
H         14.17000       14.29400       17.38500
C         16.34900       14.58200       15.04400
H         15.54600       14.12000       14.96000
C         16.66500       15.55200       14.10300
F         15.94400       16.16100       22.58500
C         19.97200       16.77700       15.36000
C         15.68200       15.86100       13.00500
C         12.53000       15.93900       18.56600
C         19.94200       11.07100       17.80600
C         16.56700       16.43400       21.43700
C         19.00000       11.94100       17.26900
H         19.07000       12.18500       16.37300
B         16.71600       13.28200       17.33100
C         15.12200        9.73200       13.91800
C         13.09100        9.88100       18.47800
F         16.06800       16.80600       12.22500
C         18.82700       10.92200       21.38100
F         14.53500       16.22900       13.52100
F         17.79800       16.15900       21.57800
F         15.44500       14.81000       12.29200
C         21.01500       10.49700       16.92700
F         21.86200        9.74700       17.42700
F         21.69600       11.56900       16.31000
F         20.51200        9.96900       15.80600
F         11.95800       15.03000        5.21600
F         21.03300       16.33800        2.20100
F         12.54100       16.51100        3.81800
F         20.77600       16.87900        0.18000
F         12.55500       10.98400        5.27100
F         14.41300       10.36900       -0.75400
F         17.54500       10.45700        7.76000
F         19.59100        9.86100        7.80600
F         12.31900       17.03800        5.86000
F         19.00700       11.87600        8.26500
F         19.96400       18.11000        1.70300
F         16.49100       10.11400       -0.46700
F         15.08500        8.58900        0.12200
F         12.28700        9.26300        4.10000
C         14.91200       11.73100        3.90700
H         14.80200       12.12900        4.74000
C         15.83200       12.28400        3.01400
C         18.54100       15.14700        2.27400
H         19.15400       14.96900        2.95100
C         17.32600       14.44600        2.26100
C         16.21200       15.89800        6.54200
C         18.08100       12.59100        4.15400
C         18.91400       11.23500        6.00400
C         18.86300       16.09600        1.31100
C         14.82900       14.86300        4.40500
H         14.34700       14.53000        3.68300
C         15.95200       11.64400        1.77600
H         16.55300       11.97700        1.14800
C         14.87900       16.25600        6.38200
H         14.45800       16.82200        6.98800
C         16.15800       14.46700        4.56400
C         18.00000       12.13700        5.47100
H         17.31100       12.44800        6.01200
F         13.83300        9.35200        5.53900
F         17.64000       15.47400        8.34100
C         14.20000       15.74100        5.29200
C         19.94600       10.72500        5.22900
H         20.55800       10.12100        5.58300
C         16.84000       15.04800        5.64500
H         17.74200       14.85600        5.76300
C         14.27900        9.98600        2.36000
H         13.76900        9.23900        2.14000
C         17.97000       16.39500        0.28100
H         18.18200       17.02600       -0.36800
C         14.15000       10.60100        3.59200
C         20.15100       16.86100        1.37000
C         16.44500       14.77800        1.22300
H         15.62100       14.35100        1.18100
C         15.19000       10.51700        1.46200
C         12.76300       16.08100        5.05700
C         16.76300       15.72400        0.25500
C         16.98300       16.44800        7.70500
C         18.77800       10.84000        7.44300
C         15.76500       16.05800       -0.82000
C         19.13500       12.06900        3.38200
H         19.23300       12.34600        2.50000
B         16.86700       13.46500        3.48700
C         20.03300       11.14800        3.91100
C         13.20900       10.04900        4.61700
F         16.30400       16.41900       -1.93800
C         15.32800        9.89300        0.10200
F         16.28900       17.02800        8.58900
F         14.93800       16.99400       -0.43700
C         21.10000       10.56200        3.02800
F         18.00600       17.18200        7.29000
F         14.98000       15.03200       -1.14200
F         20.52300       10.05600        1.82000
F         21.75200        9.59400        3.46200
F         21.82900       11.49000        2.44700
C         11.32600       16.82200       11.39300
C          9.95700       16.96300       11.64500
C          9.08600       16.87500       10.54700
H          8.16800       16.95600       10.67400
C          9.59500       16.66800        9.27200
H          9.02200       16.72000        8.54200
C         10.92600       16.39000        9.05900
H         11.21400       16.10300        8.22400
C         11.84500       16.53900       10.10400
H         12.75900       16.45400        9.95800
F         12.25200       16.99700       12.31900
F          9.37200       17.02100       12.87200
C         10.99900       16.95100       24.63300
C         11.31300       16.59600       23.32800
C         10.26100       16.37000       22.42900
H         10.44900       16.06700       21.56900
C          8.95000       16.59200       22.80500
H          8.27600       16.58300       22.16400
C          8.63500       16.82900       24.12700
H          7.74800       16.84000       24.40900
C          9.66000       17.04700       25.03400
H          9.45800       17.26200       25.91300
F         11.81500       17.16700       25.63700
F         12.55700       16.47400       22.88800
C          9.67800       16.55100       22.51200
C         11.03000       16.42400       22.83000
C         11.51600       16.60000       24.11600
H         12.42400       16.52300       24.30700
C         10.58600       16.89500       25.11400
H         10.86400       17.01000       25.99400
C          9.24500       17.01500       24.79400
H          8.63700       17.19800       25.47400
C          8.76900       16.87400       23.49900
H          7.87000       16.99200       23.30300
F          9.33100       16.37700       21.27100
F         11.71400       16.17700       21.74600
F         22.21400       10.69600       17.52100
F         21.02800       10.82900       15.75900
F         20.99500        9.13200       17.02000
F         14.74400       14.95300       12.79500
F         15.03300       16.96300       13.16300
F         16.23900       15.99000       11.81900
F         15.87400       16.97200       22.31300
F         17.63600       17.13700       21.01600
F         17.26900       15.47400       22.08600
F         21.40300       11.23700        2.03500
F         21.06800        9.29900        2.99200
F         22.35200       10.70900        3.78000
F         18.18700       16.13000        7.81200
F         16.95200       17.79800        7.71200
F         16.39700       16.23600        8.85200
F         14.55500       16.08200       -0.39000
F         15.91300       17.26400       -1.30200
F         15.86200       15.28300       -1.82000
C         11.99700       16.54200       10.61300
C         11.20800       16.71600       11.74700
C          9.82800       16.87200       11.55300
H          9.27300       16.94000       12.29700
C          9.25900       16.93100       10.27000
H          8.35500       17.13000       10.16800
C         10.05100       16.68900        9.15000
H          9.68100       16.67300        8.29600
C         11.41500       16.47200        9.34100
H         11.95100       16.27900        8.60800
F         13.28900       16.42800       10.50300
F         11.86600       16.75500       12.90000
