94
C:\Users\Javier\OneDrive - Universitat de Barcelona\Tesi\4 - Contribucions\Treballs\3-PhD\chapter_1\cif\pcp\PIXQOD.pcp.pdb
Pd        13.67700        3.90800        2.58600
Br        17.09600        1.46900       -1.26700
P         11.73900        5.14200        3.16800
P         13.37000        3.74700        4.82200
N         13.99500        4.15100        0.53400
O         15.60600        1.51800        4.51600
O         17.30500        0.12600        3.82000
C         15.17700        2.55800        2.31600
C         15.81600        1.69700        3.15800
C         16.83300        0.83600        2.75000
C         17.22100        0.73700        1.45500
H         17.88400        0.14400        1.18500
C         16.56800        1.57200        0.55300
C         15.58400        2.46200        0.95300
C         14.89900        3.38400        0.04400
H         15.11200        3.41100       -0.86100
C         13.32300        5.19700       -0.28200
H         12.36300        5.13800       -0.09600
C         13.50000        5.05800       -1.77500
H         13.13700        4.20800       -2.06400
H         14.44700        5.06900       -1.98900
C         12.79900        6.19200       -2.52000
H         12.96400        6.10500       -3.47200
H         11.84300        6.13300       -2.37300
C         13.30700        7.54000       -2.03500
H         14.25300        7.62200       -2.23300
H         12.83900        8.25100       -2.50100
C         13.09100        7.67900       -0.56500
H         12.14000        7.65200       -0.37400
H         13.43200        8.53800       -0.26900
C         13.79500        6.56000        0.20000
H         14.75400        6.63500        0.07300
H         13.61000        6.65100        1.14800
C         16.69500        0.73800        4.97800
H         16.38200        0.05600        5.59200
H         17.33700        1.29800        5.44000
C         12.25100        5.20800        4.93300
H         11.51100        5.06900        5.54400
H         12.72300        6.02500        5.15600
C         14.75300        4.01300        5.96000
C         15.93400        4.49400        5.46100
H         16.00500        4.70100        4.55700
C         17.03000        4.67300        6.30600
H         17.82900        5.00200        5.96100
C         16.94400        4.37800        7.60300
H         17.67000        4.52400        8.16700
C         15.76900        3.85600        8.10300
H         15.71700        3.61300        8.99900
C         14.67600        3.69100        7.28700
H         13.88100        3.36000        7.63800
C         12.39000        2.31900        5.35200
C         12.42000        1.16500        4.60500
H         12.98100        1.10400        3.86500
C         11.61200        0.09100        4.95700
H         11.62400       -0.68600        4.44700
C         10.79700        0.17400        6.05600
H         10.26300       -0.55100        6.29300
C         10.76300        1.30500        6.79600
H         10.20800        1.35200        7.54100
C         11.55000        2.40200        6.45400
H         11.51600        3.18100        6.96100
C         10.32100        4.01900        3.10400
C         10.31200        3.04600        2.12000
H         11.01000        2.99300        1.50700
C          9.23600        2.13200        2.04900
H          9.20300        1.49700        1.37000
C          8.24800        2.18900        2.98500
H          7.56400        1.55900        2.96200
C          8.23700        3.17200        3.98100
H          7.54200        3.21300        4.59900
C          9.29200        4.09100        4.02800
H          9.29900        4.75200        4.68100
C         11.11100        6.76300        2.66000
C         10.03200        6.86900        1.81400
H          9.58300        6.10300        1.54100
C          9.61300        8.11000        1.36500
H          8.88400        8.17000        0.79100
C         10.26300        9.24700        1.75800
H          9.97700       10.07700        1.45000
C         11.33400        9.16200        2.60600
H         11.77400        9.93300        2.88400
C         11.75900        7.92400        3.04900
H         12.49200        7.86900        3.61700
P         15.49100        8.59600        4.67800
F         15.82500        9.54700        5.88600
F         16.63400        7.60200        5.07800
F         15.10300        7.66000        3.45100
F         14.34500        9.60500        4.22400
F         14.41400        7.84400        5.57000
F         16.53300        9.37900        3.76100
O         12.83600        0.24200       -0.83900
O         11.93000        0.98600       -0.94700
H         12.17100        0.20300       -0.78900
H         12.69100        0.95300       -1.21000
