86
C:\Users\Javier\OneDrive - Universitat de Barcelona\Tesi\4 - Contribucions\Treballs\3-PhD\chapter_1\cif\pcp\QACFEG.pcp.pdb
Ru         4.89400        3.82100       15.60200
P          4.53400        6.06400       16.28100
P          3.38200        3.85500       17.41900
O          7.50200        6.30800       14.96400
O          7.58400        5.04700       13.12700
O          7.63800        1.55000       16.72400
O          7.69900        2.92100       18.49500
C          6.99900        3.96000       15.08400
C          6.92000        3.84100       16.52300
C          7.38800        5.23000       14.44500
C          7.90000        6.22000       12.36400
C          7.42900        2.65700       17.19300
C          8.18400        1.83500       19.29200
C          4.33700        4.20700       13.54900
C          3.13200        4.02400       14.26400
C          2.35500        2.76300       14.14800
C          2.80900        1.64300       14.69200
C          4.12900        1.63800       15.37700
C          5.30400        1.78000       14.64100
C          5.34000        1.89100       13.14300
C          4.86100        3.19100       12.54500
C          3.19700        5.67400       17.48300
C          1.68600        3.17200       17.32700
C          1.46700        1.85800       17.73200
C          0.21800        1.26500       17.59000
C         -0.81200        1.97800       17.02800
C         -0.62300        3.27400       16.63800
C          0.62800        3.88100       16.75700
C          3.81000        3.36600       19.13900
C          4.68100        2.31300       19.34400
C          4.93900        1.85400       20.61600
C          4.33000        2.44500       21.70800
C          3.46600        3.49900       21.51400
C          3.20500        3.95400       20.23000
C          3.82100        7.25700       15.07700
C          4.59700        7.65300       13.98400
C          4.07100        8.49600       13.01000
C          2.77100        8.93400       13.12300
C          2.00500        8.55700       14.20000
C          2.51200        7.72100       15.16900
C          5.67300        7.09400       17.28900
C          6.10300        8.35300       16.88600
C          7.00800        9.06800       17.65600
C          7.45700        8.56000       18.84700
C          7.01200        7.32000       19.27600
C          6.13000        6.58800       18.49300
H          7.35000        3.18800       14.65300
H          7.12500        4.64900       16.97800
H          8.69500        6.61400       12.70500
H          8.02900        5.98200       11.45300
H          7.21400        6.84100       12.25400
H          7.53400        1.14100       19.30100
H          8.99400        1.50600       18.92000
H          8.34100        2.13100       20.18200
H          4.48900        5.10800       13.28500
H          2.61400        4.80900       14.39700
H          1.52800        2.76200       13.68200
H          2.29300        0.84700       14.63200
H          4.18900        1.09500       16.15400
H          6.05400        1.32700       15.00900
H          4.16000        2.99600       11.93500
H          5.58800        3.58300       12.07600
H          4.79200        1.19700       12.79600
H          6.23700        1.75700       12.86200
H          2.34300        5.96600       17.18600
H          3.36900        6.02800       18.34800
H          2.18200        1.36700       18.12000
H          0.07900        0.36800       17.87100
H         -1.65900        1.56600       16.90300
H         -1.35500        3.77100       16.29500
H          0.76200        4.77000       16.45500
H          5.10000        1.89900       18.59800
H          5.53600        1.12900       20.75200
H          4.50900        2.12700       22.58500
H          3.04700        3.90900       22.26300
H          2.61000        4.68100       20.09600
H          5.48700        7.33100       13.90600
H          4.60800        8.77200       12.27700
H          2.40000        9.49800       12.45500
H          1.11600        8.88200       14.27800
H          1.96800        7.45600       15.90200
H          5.76600        8.72600       16.08000
H          7.32500        9.91000       17.35500
H          8.06100        9.06300       19.38100
H          7.32300        6.96200       20.10000
H          5.82500        5.73600       18.78300
