91
C:\Users\Javier\OneDrive - Universitat de Barcelona\Tesi\4 - Contribucions\Treballs\3-PhD\chapter_1\cif\pcp\QAFSUL.pcp.pdb
C          1.50500       12.49300        5.09500
H          1.47800       11.84100        5.81400
H          0.70800       13.04700        5.10200
C          7.16900       15.18500        1.82700
C          6.15700       14.03000        1.88200
C          6.29000       13.05800        0.87900
H          6.98600       13.14000        0.26600
C          1.65700        9.98100        3.61100
H          0.73400        9.82400        3.90200
C          1.88300        9.13600        2.43100
H          2.77000        9.32600        2.08800
H          1.24600        9.39600        1.74600
C          1.76700        7.65900        2.64000
H          1.97600        7.21000        1.80400
H          0.84700        7.44800        2.86300
C          2.68900        7.09200        3.74900
H          2.44600        6.17400        3.95300
H          3.61600        7.10800        3.46000
C          2.51400        7.92800        4.91700
H          1.62900        7.75400        5.27200
H          3.15100        7.63600        5.58700
C          2.64900        9.33400        4.78100
H          3.57100        9.54100        4.56200
H          2.44600        9.75400        5.63300
C          0.45800       12.39300        2.34000
H          0.40700       13.36200        2.47900
C         -0.93200       11.81900        2.71600
H         -0.94800       10.86300        2.54700
H         -1.10100       11.96300        3.66000
C         -2.02000       12.51700        1.87500
H         -2.89200       12.14100        2.07200
H         -2.04200       13.46600        2.07000
C         -1.68500       12.30000        0.50800
H         -2.39000       12.67100       -0.04500
H         -1.65600       11.34500        0.34500
C         -0.30700       12.93000        0.05400
H         -0.15100       12.77500       -0.89100
H         -0.29100       13.88400        0.22300
C          0.77200       12.18700        0.92800
H          0.76800       11.23800        0.72300
H          1.65600       12.53700        0.73100
P          1.86300       11.75100        3.44900
O          5.40500       14.05500        2.81200
F          6.61300       16.28300        2.25700
F          7.60900       15.48200        3.07100
F          7.55400       15.60200        0.56400
F          6.53200       16.36500        1.42300
F          8.15400       14.94400        2.61000
F          8.27700       15.05800        1.00300
Rh         3.77700       12.76100        3.09300
P          3.06800       13.46200        5.04800
C          2.65100       15.15800        5.43400
H          2.23600       15.15600        6.32200
C          3.72800       16.15600        5.46700
H          4.19500       16.12600        4.61800
H          4.36100       15.89600        6.15500
C          3.31400       17.57100        5.72500
H          4.10200       18.13700        5.68300
H          2.95900       17.63100        6.62500
C          2.25600       18.12200        4.73600
H          1.90600       18.97000        5.05500
H          2.65100       18.26200        3.86000
C          1.19600       17.14000        4.65600
H          0.71900       17.15300        5.50000
H          0.57200       17.43400        3.97300
C          1.53100       15.79000        4.37700
H          1.88200       15.73300        3.47500
H          0.72400       15.25000        4.41600
C          4.08000       12.77300        6.50300
H          4.06500       11.79600        6.42200
C          3.47100       13.11100        7.88800
H          3.50900       14.06900        8.03700
H          2.54100       12.83700        7.91200
C          4.26300       12.37800        8.99000
H          3.91800       12.61000        9.86600
H          4.19400       11.41800        8.87500
C          5.61900       12.79500        8.86600
H          6.13100       12.40100        9.59000
H          5.65800       13.75800        8.97100
C          6.31200       12.40900        7.49800
H          7.24000       12.69200        7.48700
H          6.27300       11.45300        7.34800
C          5.48000       13.18100        6.40600
H          5.55600       14.13900        6.54700
H          5.82300       12.97600        5.52100
C          5.41600       11.96700        0.76400
C          5.74200       10.97000       -0.35900
F          5.39800        9.76500        0.00300
F          7.08400       10.75700       -0.61800
F          5.05400       11.24600       -1.40500
O          4.41600       11.73500        1.37700
