167
C:\Users\Javier\OneDrive - Universitat de Barcelona\Tesi\4 - Contribucions\Treballs\3-PhD\chapter_1\cif\pcp\QEZCOO.pcp.pdb
Ru        -4.44300       14.53000        6.12800
Cl        -4.79600       12.15400        5.82900
P         -2.22800       14.07800        5.99900
P         -3.87600       14.44900        3.92200
C         -2.28700       13.50000        4.21900
H         -2.55100       12.53500        4.25800
C         -1.15600       13.55900        3.32200
N         -0.25700       13.61800        2.61300
C         -1.44300       12.72900        6.94100
C         -0.16300       12.28600        6.65200
H          0.31800       12.67000        5.92800
C          0.41900       11.29300        7.40700
H          1.29500       10.99100        7.20100
C         -0.27400       10.73400        8.46900
H          0.13300       10.05600        8.99500
C         -1.54700       11.16000        8.76000
H         -2.02100       10.77500        9.48800
C         -2.13600       12.14700        7.99600
H         -3.02200       12.43000        8.19100
C         -0.98800       15.39400        6.16100
C         -0.53800       16.20200        5.12000
H         -0.79000       16.00000        4.22600
C          0.27500       17.29000        5.37400
H          0.58100       17.83100        4.65500
C          0.64100       17.59500        6.66100
H          1.17800       18.36000        6.83400
C          0.22900       16.79200        7.70600
H          0.50000       16.99100        8.59600
C         -0.58000       15.70100        7.45600
H         -0.86200       15.15000        8.17800
C         -3.41600       15.93100        2.96300
C         -3.27800       17.12200        3.64500
H         -3.38900       17.13700        4.58800
C         -2.98100       18.29100        2.97700
H         -2.87900       19.10200        3.45800
C         -2.83000       18.27600        1.60900
H         -2.65300       19.08400        1.14200
C         -2.93500       17.09800        0.92500
H         -2.80200       17.09000       -0.01600
C         -3.23100       15.91000        1.58600
H         -3.30800       15.09600        1.10200
C         -4.84200       13.47200        2.73000
C         -6.21200       13.70100        2.68100
H         -6.59500       14.37000        3.23400
C         -7.02300       12.97000        1.84200
H         -7.95800       13.13500        1.82300
C         -6.48200       12.00300        1.03100
H         -7.04100       11.49900        0.45000
C         -5.12900       11.76400        1.06100
H         -4.75400       11.09000        0.50700
C         -4.31200       12.50000        1.89800
H         -3.37600       12.33800        1.90200
C         -4.71100       15.45000        8.13700
C         -5.76700       14.54800        7.90500
C         -6.51000       14.98300        6.75500
C         -5.89700       16.19500        6.29900
C         -4.75800       16.45900        7.12900
C         -3.78100       15.44300        9.30300
H         -4.22000       15.86000       10.07400
H         -2.97100       15.94600        9.07800
H         -3.54100       14.52000        9.52400
C         -6.10500       13.34700        8.73800
H         -6.98800       13.47000        9.14200
H         -5.43300       13.24000        9.44300
H         -6.11400       12.54800        8.17000
C         -7.74500       14.33700        6.24800
H         -8.46600       14.45300        6.90200
H         -7.57900       13.37900        6.11300
H         -8.00400       14.74800        5.39700
C         -6.42600       17.07600        5.22800
H         -6.92900       17.81200        5.63100
H         -7.01500       16.55800        4.64100
H         -5.68000       17.43700        4.70400
C         -3.94400       17.72400        7.15800
H         -4.10600       18.19800        8.00100
H         -4.20300       18.29700        6.40500
H         -2.99200       17.50100        7.08700
Ru        -3.49800        6.11200        4.37300
Cl        -3.66600        4.01900        5.55800
P         -4.66500        5.09000        2.72200
P         -5.72500        6.27900        4.92400
C         -6.31000        5.03900        3.63400
H         -6.40000        4.14600        4.07300
C         -7.51400        5.29600        2.87700
N         -8.42300        5.53700        2.23900
C         -5.01400        5.91100        1.12800
C         -4.74700        5.31200       -0.09400
H         -4.39700        4.42900       -0.12400
C         -4.98800        5.99900       -1.26700
H         -4.81600        5.57900       -2.10200
C         -5.47200        7.27800       -1.23600
H         -5.63000        7.74500       -2.04900
C         -5.72900        7.89000       -0.03300
H         -6.07000        8.77700       -0.01200
C         -5.49200        7.21200        1.14600
H         -5.65700        7.64000        1.97900
C         -4.39100        3.35800        2.23700
C         -5.44600        2.53800        1.84100
H         -6.32700        2.89000        1.79200
C         -5.21400        1.20900        1.51900
H         -5.94000        0.64400        1.28100
C         -3.93700        0.71400        1.54200
H         -3.77700       -0.19200        1.30900
C         -2.89300        1.52000        1.90400
H         -2.00900        1.17300        1.90400
C         -3.11500        2.83400        2.26700
H         -2.38600        3.37700        2.54100
C         -6.81200        7.73200        4.73600
C         -6.25100        8.93800        4.34200
H         -5.32400        8.98100        4.14000
C         -7.02800       10.08400        4.23800
H         -6.63500       10.90800        3.97500
C         -8.36800       10.01900        4.52000
H         -8.90300       10.80000        4.44800
C         -8.93700        8.83500        4.90200
H         -9.86900        8.79600        5.08700
C         -8.16600        7.69700        5.02100
H         -8.56800        6.88300        5.29900
C         -6.34900        5.62300        6.51500
C         -7.42400        4.76800        6.63700
H         -7.83800        4.41600        5.85700
C         -7.90800        4.41900        7.88100
H         -8.65800        3.84000        7.95200
C         -7.31300        4.90000        9.01300
H         -7.65100        4.66800        9.86900
C         -6.22500        5.71900        8.89900
H         -5.80500        6.05600        9.68100
C         -5.73200        6.06500        7.65400
H         -4.95900        6.61300        7.59000
C         -2.44000        7.93400        3.70200
C         -1.74000        6.76300        3.24000
C         -1.30800        6.03800        4.36600
C         -1.72300        6.76000        5.54100
C         -2.40000        7.92100        5.12200
C         -2.83100        9.09900        2.84700
H         -2.02800        9.59600        2.58400
H         -3.42900        9.69000        3.35200
H         -3.29300        8.77700        2.04500
C         -1.42200        6.47100        1.80800
H         -0.58600        6.92000        1.56000
H         -2.14800        6.79800        1.23800
H         -1.32100        5.50300        1.68600
C         -0.49800        4.78600        4.37400
H          0.35600        4.95300        4.82600
H         -0.32800        4.50000        3.45000
H         -0.98700        4.08300        4.84900
C         -1.39600        6.35200        6.94200
H         -0.44400        6.51100        7.11500
H         -1.59500        5.40000        7.06000
H         -1.93300        6.87700        7.56900
C         -2.86500        9.01800        6.03800
H         -2.12600        9.63700        6.20900
H         -3.16700        8.62800        6.88700
H         -3.60700        9.50100        5.61900
O         -6.71100        9.50400        8.43100
C         -5.33000        9.50700        8.90900
H         -5.01900        8.57400        9.02100
H         -4.75200        9.94500        8.23500
C         -5.22100       10.13800       10.04400
H         -4.87300       11.05200        9.89100
H         -4.58800        9.66000       10.63600
C         -6.48200       10.20700       10.65700
H         -6.63400       11.12600       10.99700
H         -6.50800        9.58800       11.42700
C         -7.51000        9.86700        9.74600
H         -8.12000       10.63300        9.59200
H         -8.03600        9.09400       10.07200
