76
C:\Users\Javier\OneDrive - Universitat de Barcelona\Tesi\4 - Contribucions\Treballs\3-PhD\chapter_1\cif\pcp\QIVHUY.pcp.pdb
Rh         4.74200        2.01600       10.81900
P          3.20200        2.59000       12.38900
P          4.45900        4.25500       10.55100
C          6.03300        1.33700        9.18600
C          6.14000        0.47700       10.28400
H          6.98400        0.45200       10.84000
C          5.04400       -0.18000       10.86800
H          4.25800       -0.47000       10.24000
C          5.14000       -0.96800       12.11100
C          6.14700       -0.79500       13.05200
H          6.81300       -0.13400       12.89700
C          6.21100       -1.54900       14.20200
H          6.92400       -1.40900       14.81400
C          5.27500       -2.48300       14.47100
H          5.32300       -2.98800       15.27600
C          4.24700       -2.70400       13.57400
H          3.58600       -3.36100       13.75900
C          4.18300       -1.95100       12.38500
H          3.48400       -2.11200       11.76400
C          3.18200        4.41000       11.91100
H          2.30000        4.70600       11.57400
H          3.48000        5.00100       12.64800
C          1.42400        1.96100       12.14000
C          1.40700        0.42400       12.17600
H          1.62400        0.11700       13.08100
H          2.07200        0.07500       11.54600
H          0.51700        0.10200       11.92500
C          0.37600        2.54300       13.08100
H          0.41200        3.52200       13.04500
H          0.55500        2.24200       13.99700
H         -0.51500        2.23800       12.80700
C          1.01400        2.33000       10.70400
H          0.15500        1.90800       10.49100
H          1.69800        2.01300       10.07600
H          0.92700        3.30300       10.62900
C          3.55400        2.50300       14.27100
C          2.87300        3.61100       15.07400
H          3.10200        3.51600       16.02100
H          1.90200        3.54300       14.96400
H          3.17800        4.48400       14.75000
C          3.14100        1.13300       14.83700
H          3.46300        1.05000       15.76000
H          3.53300        0.42100       14.28900
H          2.16400        1.05500       14.82500
C          5.06200        2.61200       14.47900
H          5.35700        3.52000       14.26000
H          5.52000        1.97000       13.89600
H          5.27800        2.41600       15.41400
C          3.69500        4.97300        8.95200
C          4.79200        5.23000        7.91800
H          4.38300        5.47900        7.06300
H          5.32700        4.41700        7.80100
H          5.37000        5.95800        8.23000
C          2.87000        6.23600        9.15500
H          3.44000        6.94200        9.52500
H          2.13600        6.05000        9.77800
H          2.50300        6.52800        8.29600
C          2.82300        3.89300        8.32100
H          1.98300        3.81700        8.82200
H          3.29500        3.03500        8.34600
H          2.62800        4.13300        7.39100
C          5.89000        5.41700       11.02600
C          5.54800        6.91100       10.97800
H          6.29600        7.43000       11.33900
H          4.74500        7.07900       11.51500
H          5.38300        7.17800       10.04900
C          6.28900        5.10100       12.46200
H          6.51000        4.15000       12.53900
H          5.54400        5.31200       13.06200
H          7.07000        5.64000       12.71000
C          7.11400        5.11800       10.16800
H          7.89500        5.57700       10.54200
H          6.95700        5.43200        9.25400
H          7.27800        4.15200       10.15900
H          6.81300        1.80900        8.84700
H          5.38200        1.15600        8.54900
