82
C:\Users\Javier\OneDrive - Universitat de Barcelona\Tesi\4 - Contribucions\Treballs\3-PhD\chapter_1\cif\pcp\QIYKIS.pcp.pdb
Pd        16.24000        8.19200        7.35100
P         17.53200        9.63000        8.66000
P         17.12100        9.80900        5.90300
C         18.09000       10.65500        7.22800
H         17.83900       11.58600        7.32600
H         19.04600       10.58700        7.08100
C         19.08300        9.13600        9.53500
H         19.58700        9.94800        9.75100
C         18.77200        8.40400       10.82900
H         18.21800        7.63200       10.63500
H         18.27100        8.99100       11.41500
C         20.03600        7.94800       11.53800
H         20.55300        8.72400       11.80200
H         19.79700        7.45900       12.33900
C         20.87800        7.07000       10.65400
H         20.39900        6.24800       10.46300
H         21.69900        6.83800       11.11600
C         21.20900        7.77700        9.35500
H         21.69900        7.17200        8.77500
H         21.77900        8.54000        9.54200
C         19.95300        8.24800        8.64300
H         19.43700        7.47600        8.36100
H         20.20400        8.74300        7.84700
C         16.70500       10.86600        9.73200
H         16.18700       11.39400        9.09100
C         17.60800       11.91100       10.37100
H         18.16000       12.32000        9.68800
H         18.19500       11.47800       11.01200
C         16.79800       12.99100       11.07800
H         17.40300       13.54200       11.60200
H         16.38700       13.56100       10.40900
C         15.77100       12.48500       11.94600
H         15.23600       13.23000       12.26200
H         16.19100       12.07600       12.71900
C         14.85700       11.47100       11.29800
H         14.30800       11.91200       10.63100
H         14.26900       11.08900       11.96700
C         15.67200       10.35700       10.63500
H         16.09100        9.81900       11.32400
H         15.07100        9.78100       10.13300
C         18.41100        9.45600        4.62500
H         19.13600        9.17400        5.22100
C         18.33000        8.33500        3.86600
H         17.55400        8.41900        3.28600
H         18.16800        7.58200        4.45500
C         19.54500        8.00400        2.99100
H         20.20200        7.52700        3.52200
H         19.26900        7.42400        2.26300
C         20.24100       10.31400        3.12600
H         20.37700       11.05900        2.52000
H         21.03200       10.25000        3.68200
C         20.17300        9.24800        2.42100
H         21.07900        9.01900        2.15700
H         19.69000        9.47000        1.61000
C         19.06800       10.66200        4.03100
H         19.38100       11.23600        4.74500
H         18.41100       11.16000        3.51700
C         16.01800       11.09800        5.18700
H         16.57600       11.81500        4.82300
C         15.18800       10.50400        4.04500
H         15.77800       10.22200        3.32800
H         14.71000        9.72300        4.36500
C         14.19100       11.52300        3.50700
H         14.67400       12.25900        3.10000
H         13.64600       11.10600        2.82100
C         13.29600       12.05700        4.59600
H         12.69100       12.71700        4.22400
H         12.76400       11.33200        4.96400
C         14.11500       12.68400        5.68800
H         13.52600       12.99400        6.39500
H         14.58900       13.45300        5.33400
C         15.11900       11.68900        6.26800
H         15.67000       12.13800        6.92800
H         14.64200       10.97400        6.71300
C         15.57300        6.89400        8.83000
H         14.66500        6.64000        8.64600
H         15.61700        7.33100        9.68300
H         16.12700        6.11000        8.84100
C         15.07900        7.11100        6.01800
H         15.00500        6.20300        6.32200
H         15.49000        7.12400        5.15000
H         14.20500        7.50200        5.96300
