141
C:\Users\Javier\OneDrive - Universitat de Barcelona\Tesi\4 - Contribucions\Treballs\3-PhD\chapter_1\cif\pcp\QUCHOM.pcp.pdb
Pd        -0.12600        4.48200        8.16700
P          1.43500        3.55800        9.52300
P         -0.83600        4.80800       10.24500
Cl         0.84300        4.13000        6.02700
Cl        -2.04400        5.50800        7.26100
C          3.18000        4.06500        9.46300
C          4.11100        3.61100       10.39600
C          5.43300        4.03200       10.24700
H          6.09300        3.74300       10.86900
C          5.78600        4.84900        9.22200
H          6.69700        5.10400        9.13400
C          4.88700        5.32000        8.31400
H          5.15700        5.90800        7.62000
C          3.56300        4.91300        8.43100
H          2.91700        5.21600        7.80400
C          3.81200        2.73000       11.56300
H          3.14300        3.16000       12.13600
H          4.63200        2.57700       12.07700
H          3.46400        1.87200       11.24300
C          1.30300        1.75100        9.69900
C          1.84700        0.89800        8.73200
C          1.63100       -0.47100        8.89400
H          1.97400       -1.06900        8.24000
C          0.94700       -0.97900        9.95200
H          0.81400       -1.91700       10.02200
C          0.44600       -0.15100       10.91800
H         -0.01600       -0.50600       11.66700
C          0.62100        1.19400       10.78800
H          0.26800        1.77100       11.45500
C          2.62800        1.38900        7.55500
H          2.14500        2.12600        7.12800
H          2.74400        0.65900        6.91300
H          3.50700        1.70200        7.85500
C          0.74900        4.36800       11.04200
H          0.63900        3.73800       11.79900
H          1.27000        5.16100       11.32600
C         -2.14300        3.70700       10.80900
C         -3.22100        3.47900        9.97000
H         -3.26000        3.89900        9.11900
C         -4.24100        2.63600       10.37400
H         -4.99800        2.50700        9.81500
C         -4.16100        1.98600       11.58500
H         -4.84700        1.38400       11.84500
C         -3.09300        2.20200       12.42100
H         -3.04600        1.74600       13.25200
C         -2.08500        3.08000       12.05500
H         -1.36200        3.25400       12.64800
C         -1.28400        6.49500       10.67800
C         -0.46800        7.54200       10.27100
H          0.33500        7.36100        9.79700
C         -0.82200        8.84900       10.55500
H         -0.25000        9.56100       10.29500
C         -1.99300        9.12200       11.20800
H         -2.24300       10.02400       11.37900
C         -2.80800        8.09700       11.61200
H         -3.61700        8.29300       12.07000
C         -2.45900        6.78000       11.36300
H         -3.02100        6.07400       11.66200
Pd         8.69500        8.05500        4.51700
P          9.95300        9.75800        3.72500
P          7.62800        9.92600        5.03400
Cl        10.07400        6.20300        4.01400
Cl         6.98700        6.70200        5.38900
C          9.73300       10.09100        1.95200
C         10.40900        9.34400        1.00100
C         10.16400        9.64700       -0.36800
H         10.62100        9.16100       -1.04400
C          9.29000       10.61900       -0.72200
H          9.13900       10.79100       -1.64300
C          8.62700       11.35300        0.21000
H          8.01800       12.03300       -0.05300
C          8.84900       11.09800        1.51400
H          8.39000       11.61900        2.16300
C         11.36100        8.28800        1.32600
H         10.99900        7.73300        2.04800
H         12.20600        8.69000        1.61800
H         11.51700        7.73300        0.53500
C         11.69100        9.81000        4.25900
C         12.65800       10.66700        3.74700
C         13.97900       10.53800        4.25200
H         14.67500       11.08000        3.89800
C         14.25700        9.64500        5.24000
H         15.15000        9.57500        5.55500
C         13.30100        8.84900        5.79000
H         13.51400        8.25900        6.50500
C         12.02100        8.91600        5.29400
H         11.34800        8.35000        5.65500
C         12.42200       11.71500        2.75300
H         11.64200       12.24800        3.01700
H         12.25400       11.30200        1.87900
H         13.20900       12.29400        2.69500
C          9.04000       11.05300        4.68700
H          9.51900       11.34100        5.50400
H          8.78600       11.83900        4.13800
C          7.18000       10.20200        6.76400
C          5.90300       10.58700        7.13500
H          5.23400       10.71600        6.47300
C          5.59700       10.78600        8.47900
H          4.71900       11.03900        8.73800
C          6.56900       10.61900        9.42000
H          6.36600       10.77500       10.33500
C          7.83600       10.22700        9.06600
H          8.49900       10.10800        9.73700
C          8.15200       10.00400        7.73700
H          9.02500        9.72100        7.49300
C          6.25500       10.32600        3.94600
C          5.70000        9.32500        3.16600
H          6.01700        8.43200        3.23900
C          4.67800        9.63200        2.28000
H          4.29800        8.95300        1.73500
C          4.21600       10.92000        2.19400
H          3.51100       11.12300        1.59100
C          4.75700       11.92200        2.96300
H          4.42700       12.81100        2.88800
C          5.77800       11.63800        3.84500
H          6.15500       12.32600        4.37900
C          3.13600        4.16400        9.31200
C          4.21500        3.72300       10.07400
C          5.46500        4.29600        9.84200
C          6.96100       10.09600        6.71000
C          5.59300       10.00400        6.93700
C          5.08800       10.13600        8.22300
C          5.93600       10.35900        9.27100
C          7.28200       10.45100        9.06100
C          7.81600       10.31900        7.78100
C          5.61700        5.26000        8.88900
C          4.56800        5.70900        8.15000
C          3.31200        5.15800        8.35300
C          4.10900        2.68400       11.13300
H          6.21700        4.01300       10.35000
H          5.00300        9.85000        6.20900
H          4.15200       10.07100        8.37500
H          5.58600       10.45100       10.14900
H          7.86300       10.60700        9.79700
H          8.75300       10.38100        7.64300
H          6.48000        5.62900        8.73800
H          4.69300        6.39300        7.50300
H          2.57200        5.45900        7.83800
H          4.96500        2.60700       11.60400
H          3.88300        1.82300       10.72500
H          3.40900        2.93700       11.77000
