107
C:\Users\Javier\OneDrive - Universitat de Barcelona\Tesi\4 - Contribucions\Treballs\3-PhD\chapter_1\cif\pcp\RIJJUR.pcp.pdb
C         11.04500       -0.48700        9.66000
H         11.01200       -0.68800       10.62800
H         11.80200       -0.97000        9.24300
C         11.07300        2.22700       11.00300
C          9.89000        1.67900       11.77300
H          9.83800        2.11800       12.64600
H         10.00300        0.71400       11.90000
H          9.06700        1.84800       11.27000
C         12.31800        2.06700       11.88100
H         12.16900        2.50500       12.74400
H         13.08800        2.47900       11.43600
H         12.49700        1.11500       12.02500
C         10.78100        3.70000       10.79800
H          9.98600        3.80100       10.23400
H         11.54700        4.12800       10.36300
H         10.61900        4.12500       11.66700
C         12.80200        1.69100        8.51700
C         13.93600        0.91200        9.17300
H         13.72400       -0.04500        9.16300
H         14.04500        1.21100       10.10100
H         14.76800        1.06700        8.68100
C         12.72600        1.29400        7.05200
H         11.94700        1.72200        6.63700
H         12.63800        0.32000        6.98200
H         13.54200        1.58400        6.59200
C         13.10400        3.18400        8.56000
H         13.90800        3.37000        8.03300
H         13.25000        3.46000        9.48800
H         12.34500        3.68000        8.18600
C          8.29200       -1.70100       10.07900
C          7.17200       -2.44800        9.40400
H          7.53000       -3.25400        8.97500
H          6.75600       -1.87500        8.73000
H          6.50300       -2.70600       10.07300
C          9.03600       -2.60100       11.07200
H          8.43200       -2.84700       11.80600
H          9.81000       -2.12000       11.43200
H          9.33800       -3.41200       10.61400
C          7.58500       -0.61400       10.89400
H          7.20100        0.05100       10.28700
H          8.23200       -0.17900       11.48900
H          6.87100       -1.01900       11.43000
C          9.81100       -2.12400        7.45200
C         10.87200       -1.51900        6.56100
H         11.73200       -1.51500        7.03300
H         10.62300       -0.59900        6.33200
H         10.95300       -2.04900        5.74100
C          8.58100       -2.34100        6.55100
H          8.16300       -1.47600        6.35500
H          7.93600       -2.91700        7.01300
H          8.86100       -2.76700        5.71500
C         10.32200       -3.45900        7.96300
H         10.57500       -4.02300        7.20300
H          9.61400       -3.90200        8.47800
H         11.10100       -3.31300        8.53800
C          6.84700        3.67900        6.56900
C          6.33300        3.95800        7.82600
H          6.68800        3.51100        8.58500
C          5.30800        4.87700        8.00200
H          4.96400        5.04600        8.87100
C          4.79700        5.53800        6.92300
H          4.09500        6.16700        7.04300
C          5.29300        5.29900        5.66400
H          4.93600        5.75900        4.91400
C          6.30800        4.39000        5.49800
H          6.65100        4.23900        4.62500
C          7.66000        1.18700        4.94400
C          8.68000        1.03700        4.00600
C          8.60400        0.08400        2.99000
H          9.32400       -0.01800        2.37900
C          7.48100       -0.71600        2.87000
C          6.44600       -0.52500        3.76700
H          5.65600       -1.04300        3.66500
C          6.50900        0.38500        4.80900
C          5.34400        0.52400        5.77600
H          5.68600        0.98000        6.59800
C          4.25500        1.40300        5.19000
H          4.64800        2.24800        4.88500
H          3.57800        1.58300        5.87200
H          3.84000        0.94300        4.42900
C          4.77300       -0.81900        6.20300
H          4.35300       -1.25700        5.43300
H          4.10100       -0.68100        6.90400
H          5.49300       -1.38600        6.54900
C          7.38200       -1.85000        1.86200
H          6.41900       -1.93700        1.60200
C          7.79800       -3.15600        2.50400
H          8.73300       -3.09600        2.79000
H          7.70100       -3.88300        1.85400
H          7.22900       -3.33400        3.28100
C          8.18400       -1.62600        0.58300
H          7.90100       -0.78900        0.16100
H          8.02800       -2.37100       -0.03500
H          9.13900       -1.57600        0.79900
C          9.92000        1.92800        4.20800
H         10.60700        1.38200        4.68900
C         10.53200        2.39100        2.93500
H         10.91500        1.62400        2.45900
H         11.23800        3.04100        3.12900
H          9.84500        2.81100        2.37700
C          9.52600        3.08100        5.13200
H          9.16000        3.83600        4.60500
H         10.31200        3.40100        5.64100
Si         8.20100        2.38900        6.31400
P         11.11500        1.34800        9.32700
P          9.41000       -0.86200        8.80300
Rh         9.08200        1.37200        8.19900
