100
C:\Users\Javier\OneDrive - Universitat de Barcelona\Tesi\4 - Contribucions\Treballs\3-PhD\chapter_1\cif\pcp\RIJKEC.pcp.pdb
C          5.76700        6.57700        9.32100
C          6.61400        7.68700        9.09400
C          6.62200        8.75800        9.98600
H          7.20000        9.49200        9.81600
C          5.81400        8.78700       11.11300
C          4.99300        7.70400       11.33000
H          4.43400        7.70400       12.09700
C          4.94800        6.61300       10.47400
C          4.01800        5.46100       10.82000
H          4.54500        4.69700       11.13400
H          3.51100        5.20100       10.02400
H          3.39800        5.74300       11.52500
C          7.55500        7.76300        7.91600
H          8.01800        8.62700        7.92200
H          7.04400        7.67100        7.08500
H          8.21300        7.04000        7.97700
C          5.84500        9.96300       12.06100
H          4.99600       10.44800       12.00800
H          6.58000       10.56400       11.81300
H          5.98300        9.64100       12.97500
C          6.23800        3.58100        9.33300
C          7.37200        3.61500       10.17200
C          7.60100        2.57600       11.06900
H          8.36400        2.61900       11.63200
C          6.75600        1.48300       11.17200
C          5.67700        1.41400       10.30200
H          5.10900        0.65200       10.31700
C          5.41600        2.45200        9.40700
C          8.35800        4.75700       10.12200
H          7.97000        5.54300       10.55900
H          8.56300        4.97100        9.18700
H          9.18200        4.49900       10.58700
C          6.99400        0.39200       12.19100
H          7.95300        0.20000       12.24600
H          6.51400       -0.41700       11.92000
H          6.66900        0.68800       13.06700
C          4.20800        2.35900        8.52600
C          1.66400        2.15300        4.89100
C          3.07000        2.00600        4.28800
H          3.12700        1.16400        3.79100
H          3.73600        2.00600        5.00800
H          3.24500        2.75600        3.68100
C          0.66500        2.39200        3.76000
H          0.71000        1.64700        3.12400
H          0.88700        3.22800        3.30100
H         -0.24000        2.45200        4.13100
C          1.37900        0.81200        5.58000
H          0.46400        0.81300        5.93200
H          2.01100        0.68200        6.31600
H          1.47900        0.08400        4.93100
C          0.12600        3.34000        7.25800
C         -1.15800        3.01000        6.49700
H         -1.91200        2.98500        7.12500
H         -1.06600        2.13500        6.06500
H         -1.32000        3.69600        5.81600
C          0.39100        2.27100        8.33800
H         -0.36500        2.24300        8.96200
H          1.20900        2.49700        8.82900
H          0.49700        1.39500        7.91100
C         -0.09500        4.64500        8.03000
H         -0.31000        5.36500        7.40000
H          0.72100        4.87500        8.52300
H         -0.83600        4.53100        8.66300
C          1.50900        5.17900        5.28000
H          0.69000        5.66900        5.54100
H          1.53600        5.06700        4.29500
C          4.07900        6.41600        4.39600
C          4.22100        5.13800        3.58100
H          3.34800        4.88500        3.21600
H          4.55500        4.41900        4.15500
H          4.85200        5.28900        2.84500
C          3.43500        7.47200        3.49000
H          3.95000        7.54700        2.65900
H          3.42800        8.33700        3.95000
H          2.51400        7.20600        3.28200
C          5.50200        6.84900        4.77300
H          5.93200        6.13900        5.29400
H          5.46400        7.66900        5.30900
H          6.01900        7.01400        3.95900
C          2.54300        7.64800        6.74300
C          1.35000        8.30600        6.03500
H          0.57000        7.71800        6.09300
H          1.57400        8.46000        5.09500
H          1.14600        9.16100        6.46700
C          3.70400        8.64000        6.79300
H          3.44600        9.41800        7.33000
H          3.92500        8.93000        5.88400
H          4.48600        8.20700        7.19700
C          2.14600        7.38300        8.19400
H          2.88200        6.93000        8.65600
H          1.34800        6.81500        8.21700
H          1.95500        8.23500        8.64100
Si         5.70500        5.03200        8.18300
P          3.06900        5.98700        5.95000
P          1.68800        3.54900        6.19000
Rh         3.68000        4.26200        7.20400
H          3.54700        2.97500        8.73900
H          6.79100        5.16300        7.33700
H          3.71000        1.55700        8.65600
H          4.49100        2.45600        7.54400
