113
C:\Users\Javier\OneDrive - Universitat de Barcelona\Tesi\4 - Contribucions\Treballs\3-PhD\chapter_1\cif\pcp\RUMNIZ.pcp.pdb
Cl         0.89200       10.28700       12.07700
C         -0.18800       10.38400       13.38400
C          0.24400       10.16100       14.67100
H          1.15100        9.92900       14.82900
C         -0.62900       10.26800       15.73900
H         -0.32100       10.13400       16.62800
C         -1.95300       10.57400       15.49400
H         -2.57300       10.61300       16.21300
C         -2.37000       10.82200       14.20600
H         -3.26500       11.10400       14.05500
C         -1.52600       10.67000       13.13400
H         -1.84700       10.76100       12.24600
Cl         0.44700       10.16300       11.84000
C         -0.16700       10.18100       13.44100
C         -1.42000       10.68000       13.71300
H         -1.96400       11.01500       13.01100
C         -1.88500       10.69400       15.01600
H         -2.75600       11.02300       15.20600
C         -1.08800       10.23300       16.04000
H         -1.40600       10.26100       16.93500
C          0.18300        9.72600       15.76800
H          0.73100        9.40500       16.47400
C          0.63400        9.69800       14.47400
H          1.49500        9.34700       14.27900
Cl         1.17200       10.00300       13.21000
C         -0.29900       10.33300       14.05300
C         -1.41100       10.72200       13.34900
H         -1.36800       10.83300       12.40600
C         -2.59600       10.95100       14.02900
H         -3.38000       11.20200       13.55500
C         -2.62800       10.81100       15.41000
H         -3.43200       10.99000       15.88400
C         -1.50500       10.41400       16.09700
H         -1.54800       10.30000       17.04000
C         -0.30300       10.17600       15.43200
H          0.48000        9.91800       15.90200
Ru         2.76700       14.73600        8.46300
Br         0.25800       13.52100        3.03600
Br         6.37600       10.14100       10.03400
Br        -2.45000       13.64200       11.32800
Cl         1.44500       16.65600        7.85900
P          3.55900       15.67600       10.35700
P          4.70800       15.81200        7.92500
N          0.64700       12.62200        8.96200
N          1.03000       13.88200        9.30400
N          2.06300       13.83700        6.63400
N          1.65300       12.53500        6.67700
N          3.68800       12.91200        8.85300
N          2.96800       11.76500        8.65800
C          6.13800       14.86100        7.32300
C          5.90500       13.74700        6.52600
H          5.01500       13.49700        6.30700
C          6.97000       13.00000        6.04700
H          6.80800       12.23100        5.51100
C          8.26600       13.36900        6.34900
H          8.99200       12.85100        6.02200
C          8.51500       14.48700        7.12600
H          9.40900       14.74500        7.32000
C          7.45200       15.22800        7.62100
H          7.61800       15.98800        8.16500
C          4.87200       17.32000        6.90900
C          5.71500       18.36500        7.28100
H          6.13700       18.35000        8.13200
C          5.94300       19.43000        6.41700
H          6.51200       20.14200        6.68200
C          5.34800       19.45700        5.18500
H          5.52000       20.17700        4.59000
C          4.50000       18.43600        4.80700
H          4.07900       18.46100        3.95600
C          4.25800       17.37100        5.66800
H          3.66700       16.67500        5.40400
C          2.66000       17.06200       11.12600
C          2.55800       18.29000       10.47600
H          3.05200       18.44800        9.68000
C          1.73600       19.28500       10.99100
H          1.68000       20.12700       10.55300
C          1.00100       19.05700       12.13500
H          0.43100       19.73600       12.47600
C          1.09200       17.84100       12.78600
H          0.58600       17.68600       13.57500
C          1.92300       16.84800       12.28900
H          1.98900       16.01800       12.74400
C          4.04000       14.66200       11.78400
C          5.08200       15.07100       12.62300
H          5.53500       15.88900       12.45200
C          5.45700       14.29000       13.70200
H          6.17700       14.56600       14.25900
C          4.79300       13.11900       13.97200
H          5.05200       12.59100       14.71700
C          3.75000       12.70500       13.16400
H          3.29100       11.89600       13.35800
C          3.37000       13.47500       12.06400
H          2.65500       13.18900       11.50700
C          5.12200       16.34800        9.65000
H          5.93200       15.90300       10.00900
H          5.19700       17.33100        9.74100
C          0.09900       14.37100       10.12000
H          0.11400       15.23300       10.52000
C         -0.90100       13.41500       10.29600
C         -0.53100       12.32500        9.55600
H         -1.01300       11.51000        9.47400
C          1.06400       12.20500        5.50600
H          0.69700       11.35900        5.28100
C          1.09500       13.31600        4.70100
C          1.72200       14.31400        5.44000
H          1.88200       15.20000        5.13800
C          3.70300       10.69600        9.02700
H          3.42800        9.78700        8.99100
C          4.91900       11.16000        9.46200
C          4.87600       12.54400        9.34000
H          5.58200       13.13700        9.56800
B          1.56500       11.80100        8.03200
H          1.16800       10.79400        7.88000
