98
C:\Users\Javier\OneDrive - Universitat de Barcelona\Tesi\4 - Contribucions\Treballs\3-PhD\chapter_1\cif\pcp\RUNDAF.pcp.pdb
Pd         4.28900        2.91100        2.34500
P          2.85700        1.34100        3.11300
P          5.18400        1.90700        4.34800
N          5.38000        4.82000        0.42600
N          5.60100        4.35100        1.57100
C          3.46400        1.40200        4.83800
C          3.34900        3.49300        0.61300
C          4.11900        4.37600       -0.07800
C          3.67900        4.94700       -1.28800
C          2.43200        4.59900       -1.73700
C          1.63700        3.73000       -1.06900
C          2.11700        3.16200        0.12400
C          0.26600        3.37800       -1.60300
C          6.83900        4.77300        2.17000
C          8.00000        4.91900        1.43700
C          9.14400        5.34200        2.10100
C          9.13800        5.64200        3.42000
C          8.00400        5.50700        4.10400
C          6.81500        5.07000        3.51600
C         10.39100        6.15600        4.08600
C          3.32600       -0.33400        2.41600
C          4.00800       -0.47100        1.21300
C          4.42100       -1.72800        0.78700
C          4.15200       -2.84900        1.56500
C          3.46900       -2.71200        2.76800
C          3.05600       -1.45400        3.19300
C          1.03300        1.48900        3.06900
C          0.31800        0.67300        2.21000
C         -1.05200        0.84600        2.15100
C         -1.72600        1.76300        2.92700
C         -0.97600        2.54900        3.76200
C          0.40500        2.43500        3.85200
C          6.06400        0.33200        4.11600
C          6.01900       -0.67000        5.05000
C          6.66600       -1.88800        4.83400
C          7.30900       -2.13700        3.68100
C          7.37600       -1.17100        2.74900
C          6.74700        0.06600        2.92400
C          6.00500        2.64400        5.79800
C          7.39800        2.61300        5.84300
C          8.06500        3.28700        6.85400
C          7.36200        3.94900        7.82800
C          6.01500        3.99900        7.78300
C          5.31500        3.34700        6.76700
H          3.43400        0.52300        5.29100
H          3.00300        2.08700        5.38600
H          4.22700        5.54900       -1.77300
H          2.11300        4.98400       -2.54700
H          1.57800        2.53900        0.59700
H         -0.42100        3.77100       -1.02700
H          0.16200        2.40400       -1.61800
H          0.17000        3.73100       -2.51400
H          8.01600        4.73700        0.50500
H          9.95600        5.42300        1.61500
H          8.00300        5.71600        5.03100
H          6.01700        4.98000        4.02500
H         10.37100        7.13500        4.10900
H         11.17600        5.85700        3.58000
H         10.44100        5.80900        5.00200
H          4.19100        0.29400        0.68100
H          4.88700       -1.82100       -0.03500
H          4.43500       -3.70700        1.27400
H          3.28700       -3.47700        3.30100
H          2.59100       -1.36000        4.01700
H          0.75500        0.01800        1.68000
H         -1.55200        0.30700        1.54900
H         -2.67100        1.84800        2.88600
H         -1.42000        3.19000        4.30200
H          0.90300        2.99400        4.43700
H          5.53800       -0.53300        5.85700
H          6.65100       -2.55100        5.51400
H          7.71100       -2.98400        3.52700
H          7.86400       -1.33200        1.95100
H          6.78200        0.72100        2.23600
H          7.88700        2.13200        5.18600
H          9.01400        3.29000        6.87100
H          7.82700        4.37500        8.53900
H          5.53800        4.48200        8.44700
H          4.36600        3.38600        6.74300
S          2.44300        5.38600        5.30100
O          1.42300        5.85900        4.51800
O          3.60700        5.00600        4.47200
O          2.16900        4.39600        6.31100
C          3.17600        6.74200        6.14300
F          2.04200        7.27900        6.90800
F          3.42300        7.76500        5.43100
F          3.95500        6.51700        7.06800
C          3.02900       -0.29200        2.59000
C          3.42000       -0.52600        1.27700
C          3.56800       -1.82800        0.81600
C          3.32400       -2.89800        1.66900
C          2.93400       -2.66600        2.98300
C          2.78700       -1.36300        3.44400
H          3.58500        0.20600        0.69300
H          3.83400       -1.98800       -0.08200
H          3.42500       -3.79000        1.35400
H          2.76700       -3.39800        3.56600
H          2.52000       -1.20400        4.34000
