161
C:\Users\Javier\OneDrive - Universitat de Barcelona\Tesi\4 - Contribucions\Treballs\3-PhD\chapter_1\cif\pcp\SIJREK.pcp.pdb
Pd         2.91700        0.56600       13.57900
P          2.68700        1.97300       15.41800
P          4.78500        1.83300       13.54200
C          3.29700       -0.83000       12.07500
H          4.10800       -0.62700       11.52700
C          2.03100       -0.89000       11.29000
H          2.01700       -0.15700       10.62500
H          1.98200       -1.75100       10.80100
C          3.41200       -2.06800       12.90000
O          2.53200       -2.85900       13.11600
O          4.65900       -2.14100       13.51200
C          4.80700       -3.25800       14.43700
H          4.05300       -3.26600       15.06500
H          5.64500       -3.15900       14.93800
H          4.82400       -4.09900       13.93700
C          0.85600       -0.76500       12.19500
O          0.96400       -0.22000       13.30900
O         -0.28200       -1.23500       11.75300
C         -1.45600       -1.02400       12.60800
H         -1.26800       -1.36300       13.51000
H         -2.22200       -1.50500       12.23200
H         -1.65800       -0.06700       12.65200
C          4.32400        2.79400       15.07600
H          4.97200        2.65400       15.81000
H          4.22600        3.76200       14.89400
C          2.79200        1.11000       17.09200
C          3.44000       -0.23300       16.88000
H          4.39400       -0.11000       16.69400
H          3.01300       -0.68600       16.12100
H          3.33200       -0.77800       17.68700
C          3.59400        1.90400       18.10000
H          3.47900        1.51100       18.99100
H          3.28300        2.83300       18.10700
H          4.54200        1.88000       17.85100
C          1.40000        0.88000       17.65400
H          0.85500        0.40300       16.99700
H          0.98300        1.74200       17.86200
H          1.46400        0.34500       18.47600
C          1.37700        3.32000       15.44500
C          1.49000        4.11400       14.12000
H          0.81000        4.81900       14.10500
H          1.35200        3.50800       13.36400
H          2.38100        4.51700       14.05800
C          1.55400        4.30800       16.55900
H          2.48800        4.60100       16.58800
H          1.31600        3.88500       17.41000
H          0.97300        5.08200       16.40200
C         -0.01700        2.71700       15.40100
H         -0.23200        2.32600       16.27400
H         -0.05000        2.01600       14.71500
H         -0.67000        3.41500       15.18600
C          6.51700        1.19000       13.89300
C          6.99700        0.19600       12.82400
H          7.09000        0.66000       11.96500
H          6.34300       -0.52800       12.73200
H          7.86200       -0.17700       13.09000
C          7.50400        2.34200       14.06900
H          8.39200        1.98100       14.28000
H          7.20500        2.91900       14.80300
H          7.55100        2.86300       13.24000
C          6.47000        0.37900       15.21500
H          5.89900       -0.40800       15.09500
H          6.10700        0.94200       15.93100
H          7.37700        0.09100       15.45200
C          4.83400        3.00100       12.06500
C          5.86300        2.53600       11.00100
H          5.72000        3.03400       10.16900
H          5.74600        1.57800       10.83400
H          6.77100        2.70200       11.33000
C          3.49800        2.95200       11.33000
H          2.77200        3.16900       11.95100
H          3.35700        2.05300       10.96900
H          3.50400        3.60100       10.59600
C          5.18100        4.42200       12.45800
H          5.39300        4.94200       11.65100
H          5.95600        4.41600       13.05700
H          4.41800        4.83200       12.91500
B          5.27900        3.65200       22.79500
C          3.71200        4.09200       23.01400
C          3.17800        4.45900       24.26300
H          3.77500        4.54700       24.99700
C          1.84100        4.69800       24.47900
C          0.93000        4.55600       23.46400
H          0.00200        4.69800       23.61300
C          1.40100        4.20000       22.22200
C          2.73800        3.96100       22.02500
H          3.01800        3.68900       21.16000
C          1.40300        5.04500       25.86600
C          0.42200        4.04100       21.10100
C          5.74600        3.96700       21.26200
C          5.25400        5.03400       20.53900
H          4.64200        5.61900       20.97000
C          5.60300        5.30200       19.22800
C          6.53300        4.50000       18.57800
H          6.77900        4.67000       17.67600
C          7.08800        3.44800       19.27500
C          6.70200        3.20000       20.60000
H          7.10900        2.48000       21.06500
C          4.98600        6.42900       18.46500
C          8.10500        2.58100       18.61800
C          5.20000        2.02900       23.12000
C          4.86600        1.07800       22.16700
H          4.80100        1.35400       21.25800
C          4.62700       -0.25200       22.46700
C          4.74000       -0.71400       23.75600
H          4.60500       -1.63200       23.96700
C          5.05600        0.20900       24.73600
C          5.27100        1.52900       24.44200
H          5.47500        2.12800       25.14700
C          4.20300       -1.18600       21.38200
C          5.17600       -0.24100       26.15100
C          6.27700        4.43300       23.81600
C          7.42500        3.85300       24.39600
H          7.64100        2.95400       24.17900
C          8.25500        4.54700       25.28000
C          7.98500        5.85400       25.58900
H          8.54100        6.32400       26.19800
C          6.08100        5.78900       24.14300
H          5.34900        6.25100       23.74800
C          9.42400        3.85700       25.91000
C          6.90800        6.47900       25.01500
C          6.61200        7.89100       25.37000
F          5.77400        8.48200       24.56000
F          7.68600        8.65900       25.36000
F          6.13700        8.03400       26.57300
F          1.71800        6.30000       26.11400
F          1.88300        4.35300       26.81500
F          0.10000        5.08200       25.99800
F          0.06200        2.80900       20.91700
F          0.90600        4.42200       19.95900
F         -0.68500        4.72000       21.25400
F          3.99300        6.99700       19.04900
F          4.60000        6.08000       17.24800
F          5.87200        7.39500       18.20200
F          8.37600        2.91700       17.38100
F          9.24500        2.53100       19.25900
F          7.72100        1.31700       18.56700
F          2.99600       -0.92700       20.92300
F          4.98300       -1.11500       20.30500
F          4.20800       -2.44700       21.73100
F          6.09200        0.33000       26.83000
F          4.06900       -0.12300       26.80800
F          5.47500       -1.53300       26.20600
F          9.60500        4.19800       27.16500
F         10.57000        4.16600       25.30300
F          9.37900        2.54000       25.84400
F          4.48300       -1.26600       26.48700
F          6.38600       -0.52800       26.51200
F          4.77300        0.68100       26.99400
F          0.85600        3.95000       26.43200
F          0.48300        5.92700       25.95400
F          2.33900        5.42300       26.66600
F          5.37200        6.56100       17.24200
F          5.10800        7.57700       19.07100
F          3.67500        6.26100       18.38800
F          8.45600        1.53900       19.29400
F          7.67700        2.13500       17.47200
F          9.18100        3.27700       18.34400
F         10.10600        3.14800       25.06600
F          8.97000        3.01900       26.83000
F         10.23100        4.64600       26.53100
