55
C:\Users\Javier\OneDrive - Universitat de Barcelona\Tesi\4 - Contribucions\Treballs\3-PhD\chapter_1\cif\pcp\SITXAU.pcp.pdb
Ru         1.49500        1.57900        3.22500
P          0.52300        1.77400        5.33200
P         -0.33300        0.21100        3.30000
Cl         2.95600       -0.20800        4.01100
C         -3.10200        0.78300        3.50000
C         -4.34500        1.11500        2.96000
C         -4.45800        1.41200        1.60200
C         -3.32800        1.37800        0.78300
C         -2.08600        1.04700        1.32500
C         -1.97300        0.74800        2.68300
H         -3.01500        0.96400        4.55300
H         -5.22000        1.14200        3.59400
H         -5.41900        1.66900        1.18300
H         -3.41600        1.60800       -0.26800
H         -1.21100        1.01900        0.69200
C         -1.36100       -2.39300        3.01900
C         -1.29700       -3.71100        2.56400
C         -0.18900       -4.14300        1.83400
C          0.85300       -3.26000        1.55700
C          0.78900       -1.94200        2.01000
C         -0.31800       -1.50900        2.74200
H         -2.21700       -2.05800        3.58300
H         -2.10300       -4.39600        2.77800
H         -0.14000       -5.16400        1.48300
H          1.71000       -3.59600        0.99100
H          1.59600       -1.25800        1.79600
C          2.18500        0.60200        7.25500
C          2.79700        0.49100        8.50300
C          2.51100        1.41900        9.50500
C          1.61300        2.45800        9.25900
C          1.00000        2.56900        8.01100
C          1.28600        1.64100        7.00900
H          2.40600       -0.11600        6.47900
H          3.49200       -0.31200        8.69300
H          2.98500        1.33400       10.47100
H          1.39200        3.17600       10.03500
H          0.30500        3.37200        7.81900
C         -0.35800        4.41700        5.22000
C         -1.22700        5.47000        5.51200
C         -2.42500        5.21900        6.18100
C         -2.75500        3.91700        6.55700
C         -1.88700        2.86600        6.26500
C         -0.68900        3.11500        5.59600
H          0.56900        4.61000        4.70100
H         -0.97200        6.47700        5.22200
H         -3.09800        6.03300        6.40900
H         -3.68300        3.72400        7.07600
H         -2.14200        1.85700        6.55600
C         -0.44200        0.23300        5.12100
C         -0.67200       -0.73600        5.99300
C          2.14500        3.63400        2.70200
C          1.02200        3.23700        1.88500
C          1.48600        2.14500        1.09200
C          3.21100        2.77000        2.43000
C          2.77400        1.84800        1.47200
