76
C:\Users\Javier\OneDrive - Universitat de Barcelona\Tesi\4 - Contribucions\Treballs\3-PhD\chapter_1\cif\pcp\SUPTAB.pcp.pdb
Pd         0.21000        8.81200        5.30800
P          0.35000       11.10600        5.38000
P          2.49200        9.30700        5.34900
C         -0.20100        6.65000        5.27400
H          0.39000        6.09800        4.70300
H         -0.41300        6.22800        6.14400
C         -1.24900        7.30500        4.63200
C         -1.88400        8.35600        5.34500
H         -2.26400        8.11800        6.22800
H         -2.47100        8.95200        4.81600
C          2.76800        8.23300        2.78500
H          2.01800        7.69700        3.01300
C         -1.49900        7.17800        3.14900
H         -1.53800        8.07100        2.74600
H         -2.35000        6.71500        2.99900
H         -0.77200        6.66600        2.73800
C         -0.01700       12.10800        3.88600
H          0.43300       12.99500        3.98900
C          0.55100       11.42900        2.63800
H          0.33600       11.96700        1.84700
H          0.15600       10.53700        2.54300
H          1.52400       11.34900        2.72400
C         -1.52300       12.35100        3.75700
H         -1.70700       12.83100        2.92300
H         -1.83400       12.88600        4.51700
H         -1.99300       11.49100        3.74900
C         -0.35300       12.02900        6.80300
H         -1.34800       12.00600        6.71100
C          0.06700       13.49100        6.83100
H          1.03200       13.55200        6.99000
H         -0.41300       13.95500        7.54900
H         -0.14900       13.91000        5.97100
C         -0.00100       11.32700        8.10800
H         -0.29700       10.39400        8.06700
H         -0.44900       11.77900        8.85300
H          0.96900       11.35700        8.24400
C          2.18200       11.12300        5.56900
H          2.46200       11.44300        6.46200
H          2.62300       11.66400        4.86600
C          3.77500        8.89600        6.59900
C          4.50900        9.95400        7.16100
H          4.38800       10.83500        6.82900
C          5.40900        9.73000        8.19300
H          5.89500       10.45500        8.56900
C          5.59700        8.43700        8.67500
H          6.20800        8.27700        9.38400
C          4.88600        7.38400        8.11400
H          5.01300        6.50400        8.45000
C          3.99000        7.59500        7.07000
C          2.53300        5.55500        7.24900
H          2.35600        5.77700        8.15500
C          3.33800        6.38800        6.47300
C          1.98700        4.40000        6.70000
H          1.44200        3.83100        7.23200
C          2.24000        4.08200        5.37100
H          1.85200        3.30200        4.99100
C          3.05100        4.88900        4.59800
H          3.23100        4.66100        3.69400
C          3.60200        6.03700        5.15400
H          4.16700        6.59000        4.62500
C          3.27000        9.15700        3.70000
C          4.36300        9.96700        3.35300
H          4.70500       10.60000        3.97300
C          4.94300        9.83700        2.09600
H          5.67400       10.39200        1.85000
C          4.45100        8.89400        1.19900
H          4.85800        8.79400        0.34700
C          3.36600        8.09700        1.54400
H          3.03300        7.45700        0.92700
P          4.70300       13.97900        8.02800
F          6.16100       13.54100        8.47800
F          4.08100       12.69800        8.75000
F          4.87000       13.16000        6.66300
F          3.24400       14.44300        7.59500
F          5.31100       15.26800        7.32000
F          4.53000       14.80700        9.37200
