126
C:\Users\Javier\OneDrive - Universitat de Barcelona\Tesi\4 - Contribucions\Treballs\3-PhD\chapter_1\cif\pcp\TATFAY.pcp.pdb
Rh         7.32300       -0.50500        8.98700
P          6.15800        1.11600        7.77700
P          8.36800       -0.27700        6.95400
C          6.95600       -0.10700       11.16500
H          6.63800        0.85600       11.16300
C          9.06000        3.36400        6.31200
C          8.90400       -1.22700       10.31700
H          9.76800       -1.04700        9.98900
C          5.62500        2.73700        8.50000
H          6.31800        2.98500        9.17700
C          4.77100        0.37100        6.77300
H          5.22300       -0.22500        6.10900
C          8.42200        3.03700        5.01400
C          8.99700        2.59500        8.60800
H          8.67100        2.00200        9.27400
C          4.30100        2.60600        9.26600
H          4.37100        1.87400        9.93100
H          3.57200        2.38200        8.63600
C          3.93300        5.09500        9.00200
H          3.18000        4.96900        8.37300
H          3.77400        5.93600        9.50100
C          8.59300        3.62500        3.75900
H          9.24100        4.30700        3.62700
C         10.72100       -1.69800        7.13500
H         10.27300       -2.11300        7.91300
H         10.50100       -2.23400        6.33100
C          6.63700       -3.49000        4.93100
H          6.54600       -4.44900        5.15800
H          5.73000       -3.09000        4.94100
C          3.89000        1.31000        5.93200
H          4.45700        1.89100        5.36600
H          3.34700        1.88600        6.52600
C         10.92000        0.43100        5.77200
H         10.70300       -0.04300        4.93100
H         10.60500        1.36600        5.69100
C          9.97700        4.34900        6.62400
H         10.32000        4.92800        5.95300
C          8.58200        2.47100        7.27500
C         10.20600       -0.25200        6.94800
H         10.48000        0.25000        7.77000
C          9.89700        3.60700        8.93400
H         10.18100        3.70800        9.83500
C          7.74600       -1.34200        5.56700
H          6.83000       -0.98700        5.38000
C          8.28200       -0.68000       11.63400
H          8.85900       -0.08800       12.19500
C          7.56000       -1.93000        3.16200
H          6.72400       -1.40600        3.07800
H          8.01400       -1.92100        2.28000
C          6.89700        2.15100        2.88300
H          6.36800        1.85900        2.15100
C          8.46500       -1.27700        4.20000
H          8.64200       -0.33400        3.95400
H          9.33000       -1.75600        4.24800
C         12.94400       -1.01100        6.18800
H         13.91800       -0.98800        6.36300
H         12.79600       -1.52800        5.35800
C          7.79400        3.19400        2.70200
H          7.86700        3.61500        1.85400
C         10.38900        4.46800        7.96300
H         11.01000        5.14600        8.20400
C          5.56200        3.91400        7.48800
H          6.43400        4.00500        7.02800
H          4.87100        3.72600        6.80300
C          6.75600        1.52300        4.12700
H          6.14600        0.80400        4.23600
C          2.96100       -1.38600        6.75700
H          3.49100       -2.00800        6.19600
H          2.36400       -1.92800        7.33200
C         12.43300        0.41700        5.99300
H         12.88400        0.82400        5.21100
H         12.65600        0.95800        6.79100
C          3.91300       -0.57600        7.64500
H          4.50400       -1.19000        8.15000
H          3.39000       -0.04500        8.29700
C          7.22100       -3.36200        3.53600
H          6.57000       -3.72000        2.87900
H          8.04100       -3.91300        3.47800
C          3.97000        3.92400        9.98700
H          3.09100        3.84200       10.43400
H          4.65200        4.09900       10.68300
C          7.63200        1.45400        6.63300
C          7.81300       -2.01200       12.27100
H          7.22800       -1.88000       13.06100
H          8.56000       -2.62200       12.49200
C          7.03100       -2.44500       11.00300
H          6.54400       -3.31700       11.04500
C          2.11700       -0.49500        5.85600
H          1.58100       -1.06400        5.24700
H          1.48900        0.02900        6.41500
C         12.23400       -1.70600        7.35400
H         12.55400       -2.63900        7.42800
H         12.44900       -1.23800        8.20000
C          7.50400       -2.80000        5.99700
H          8.36800       -3.27400        6.08700
H          7.04300       -2.82400        6.87300
C          7.53300        1.97000        5.20600
C          2.96000        0.45000        5.03800
H          2.37000        1.04500        4.51300
H          3.51000       -0.07200        4.40100
C          8.14400       -2.31100        9.94300
H          8.33400       -2.90900        9.29200
C          5.22500        5.21500        8.21800
H          5.96400        5.44500        8.83700
H          5.13900        5.94900        7.55900
C          6.18600       -1.18500       10.78500
H          5.18400       -1.17800       10.58600
Cl         3.93700        4.34000        3.54000
Cl         4.29500        3.92100        0.65900
C          3.58000        3.30300        2.14500
H          3.93000        2.39300        2.31800
H          2.60000        3.23500        2.03000
Cl         3.74800        7.51500        2.28500
Cl         4.81200        9.77900        0.76200
C          3.38200        8.92600        1.29700
H          2.86400        8.63800        0.50300
H          2.81500        9.54600        1.82100
F         -1.10500        1.08300        1.76300
F          0.49200        2.70600        2.92900
F         -0.45600        1.30300        3.96800
F          0.70000        0.24900        2.28800
B         -0.03600        1.37300        2.61700
F          0.60500        2.49400        2.33800
F         -1.08000        1.69200        1.75700
F         -0.47400        0.88400        3.80600
F          1.10300        0.64900        2.20300
