72
C:\Users\Javier\OneDrive - Universitat de Barcelona\Tesi\4 - Contribucions\Treballs\3-PhD\chapter_1\cif\pcp\TEBYAC.pcp.pdb
Ru         3.25000        5.25200        8.74300
S          4.29100        7.42400        8.42100
S          1.80500        3.37200        8.21700
P          4.90500        3.94400        9.55500
P          3.24500        5.46700       10.99100
N          1.83900        6.77400        8.28000
N          3.42000        4.63800        6.71400
C          4.86800        4.62700       11.26700
H          5.59200        5.24600       11.44600
H          4.83000        3.94000       11.95100
C          2.62800        7.86300        8.18100
C          2.07200        9.11800        7.90300
H          2.61600        9.86900        7.81300
C          0.72100        9.21800        7.76700
H          0.33600       10.04600        7.58900
C         -0.07800        8.10900        7.89100
H         -1.00100        8.17500        7.79400
C          0.51900        6.88800        8.16400
H         -0.01400        6.13300        8.26600
C          2.63300        3.52900        6.70200
C          2.64200        2.65600        5.61000
H          2.12400        1.88300        5.61000
C          3.44300        2.97500        4.53200
H          3.48500        2.39800        3.80400
C          4.18200        4.13900        4.51900
H          4.68100        4.37900        3.77200
C          4.16300        4.93500        5.63400
H          4.68200        5.70600        5.64500
C          6.63200        4.03300        8.96200
C          6.95600        4.96900        8.00400
H          6.30800        5.56800        7.71100
C          8.24500        5.02900        7.47000
H          8.45300        5.66700        6.82600
C          9.20600        4.14100        7.89900
H         10.06100        4.16500        7.53200
C          8.90300        3.21900        8.87000
H          9.55900        2.63300        9.16900
C          7.62300        3.15700        9.40800
H          7.42700        2.53000       10.06600
C          4.69700        2.13500        9.69200
C          4.80800        1.39100        8.53500
H          5.00000        1.81100        7.72800
C          4.63100        0.01100        8.57100
H          4.70100       -0.48800        7.79000
C          4.35400       -0.61400        9.76100
H          4.25300       -1.53800        9.78400
C          4.22700        0.10900       10.90500
H          4.03400       -0.31900       11.70700
C          4.38700        1.49200       10.87200
H          4.28400        1.98600       11.65300
C          2.00000        4.62900       12.04000
C          0.82400        4.16200       11.47200
H          0.70200        4.21100       10.55200
C         -0.17600        3.61900       12.27900
H         -0.95700        3.29700       11.88900
C         -0.01800        3.55500       13.64100
H         -0.69300        3.20600       14.17800
C          1.14500        4.01300       14.20200
H          1.26200        3.96200       15.12300
C          2.14600        4.54700       13.41500
H          2.92700        4.85600       13.81300
C          3.33700        7.05200       11.88200
C          4.33000        7.37000       12.79700
H          5.04000        6.78500       12.93100
C          4.27000        8.55900       13.51800
H          4.93400        8.76200       14.13600
C          3.23700        9.42700       13.31800
H          3.19200       10.21400       13.81100
C          2.25800        9.14400       12.39000
H          1.56100        9.74400       12.24800
C          2.31500        7.95900       11.66700
H          1.66100        7.77400       11.03100
