101
C:\Users\Javier\OneDrive - Universitat de Barcelona\Tesi\4 - Contribucions\Treballs\3-PhD\chapter_1\cif\pcp\UJAFOB.pcp.pdb
N          8.26100        5.49600       15.43600
Pd         8.50000        4.95900       13.45700
P          9.07700        4.49500       11.28600
P         10.87100        5.05300       13.29600
C          6.03300        4.90500       14.96800
C          6.43300        4.72300       13.62100
C          5.43800        4.36600       12.70000
C          4.11900        4.25400       13.16600
H          3.45100        4.05100       12.55100
C          3.76600        4.42900       14.46500
H          2.87500        4.33000       14.71200
C          4.71800        4.75800       15.43700
C          7.07200        5.34900       15.87800
H          6.87600        5.52400       16.77000
C          9.27500        6.07600       16.27700
C          9.98600        5.27700       17.16800
C         10.93500        5.91700       17.97500
H         11.41100        5.41100       18.59200
C         11.18600        7.26300       17.89100
C         10.49300        8.01700       16.97000
H         10.68300        8.92400       16.88700
C          9.51300        7.44400       16.16000
C          5.68400        4.14900       11.22500
H          4.85800        3.91100       10.79500
H          6.32100        3.44200       11.10700
H          6.02600        4.95700       10.83600
C          4.32100        4.91400       16.86200
H          5.09300        5.12600       17.38900
H          3.93400        4.09400       17.17700
H          3.67600        5.62200       16.93800
C          9.79800        3.80400       17.26700
H         10.38800        3.44900       17.93400
H          9.99300        3.40000       16.41900
H          8.88800        3.61400       17.51100
C         12.23800        7.92200       18.78800
H         12.62800        7.26000       19.36400
H         11.82200        8.60500       19.32100
H         12.92300        8.31400       18.24300
C          8.75600        8.29300       15.18100
H          9.05500        9.20300       15.24900
H          7.81700        8.25000       15.37700
H          8.91100        7.97100       14.29100
C          9.38900        2.74300       10.95700
C         10.45500        2.34800       10.14700
H         10.98400        2.98900        9.73100
C         10.72500        1.00800        9.96200
H         11.43800        0.74500        9.42500
C          9.94100        0.06200       10.56800
H         10.11900       -0.83900       10.42900
C          8.90200        0.42800       11.37700
H          8.38300       -0.22100       11.79500
C          8.62700        1.76400       11.57000
H          7.92000        2.01200       12.12000
C          8.42400        5.27000        9.78400
C          8.10900        6.59900        9.84500
H          8.20200        7.05900       10.64800
C          7.64800        7.26700        8.71800
H          7.44400        8.17300        8.76300
C          7.50000        6.59300        7.56000
H          7.17200        7.03700        6.81100
C          7.82400        5.27900        7.46800
H          7.73000        4.83300        6.65700
C          8.29800        4.59600        8.58400
H          8.52600        3.69600        8.52400
C         10.73000        5.23000       11.49500
C         11.48900        5.84600       10.62300
H         12.25200        6.29400       10.90700
H         11.26400        5.83400        9.72100
C         12.01200        6.31400       13.92500
C         11.93100        7.60600       13.45600
H         11.30300        7.82500       12.80600
C         12.79000        8.58400       13.95200
H         12.74500        9.45300       13.62500
C         13.70400        8.25900       14.92200
H         14.28600        8.90600       15.24700
C         13.75800        6.99700       15.40800
H         14.37000        6.78900       16.07600
C         12.91600        6.01100       14.92800
H         12.95700        5.15000       15.27500
C         11.71400        3.46100       13.53500
C         13.00600        3.28200       13.08400
H         13.46400        3.98500       12.68400
C         13.61500        2.04500       13.23100
H         14.48600        1.91700       12.93300
C         12.94000        1.02000       13.81300
H         13.35400        0.19300       13.90700
C         11.66500        1.18500       14.26400
H         11.21800        0.47700       14.67100
C         11.03600        2.40900       14.11200
H         10.15900        2.52000       14.39900
P          9.54700       10.52900       10.77300
F          8.12900        9.84500       10.86600
F         10.95100       11.24800       10.63200
F          9.09800       11.56600        9.52700
F          9.22200       11.69200       11.73400
F         10.01000        9.54500        9.61000
F         10.10000        9.73100       11.81200
F          8.67200       11.76900       10.90100
F          9.60300       10.46400       12.42200
F          9.42800       10.26400        9.33100
F         10.20600        9.03300       10.93800
