64
C:\Users\Javier\OneDrive - Universitat de Barcelona\Tesi\4 - Contribucions\Treballs\3-PhD\chapter_1\cif\pcp\UPEJUV.pcp.pdb
I         -2.45500        5.78800        3.63300
Ru         0.26600        5.47900        3.61400
P          0.24000        3.29300        2.89000
P          0.21700        4.09500        5.42100
C          0.70100        7.59900        4.01300
C          0.41100        7.48100        2.63100
C          1.36800        6.65000        2.05100
C          2.26800        6.22400        3.08400
C          1.83900        6.83500        4.29000
C         -0.25900        2.51400        4.51900
C         -1.74500        2.14100        4.54800
C         -0.84700        2.68300        1.55100
C         -0.92100        1.32300        1.21400
C         -1.68400        0.92400        0.12500
C         -2.36100        1.86800       -0.63300
C         -2.28800        3.21200       -0.31100
C         -1.53500        3.62000        0.77500
C          1.80800        2.46000        2.41100
C          2.59000        3.06000        1.42600
C          3.80700        2.48500        1.05500
C          4.26000        1.34700        1.68000
C          3.50100        0.74000        2.64600
C          2.26200        1.27500        2.99400
C          1.86900        3.75000        6.17500
C          2.96200        3.64300        5.30500
C          4.23700        3.35200        5.77300
C          4.44300        3.21000        7.13700
C          3.39100        3.36800        8.01400
C          2.10400        3.64000        7.53500
C         -0.83800        4.22100        6.89900
C         -1.11200        3.09000        7.67400
C         -1.82800        3.20100        8.85300
C         -2.27700        4.43700        9.26900
C         -2.02600        5.56500        8.50600
C         -1.32200        5.46400        7.31100
H          0.20600        8.10900        4.64300
H         -0.31200        7.89800        2.17600
H          1.41500        6.40700        1.13400
H          3.01100        5.64300        2.97900
H          2.25400        6.74200        5.13900
H          0.33000        1.74500        4.76700
H         -1.93500        1.49700        3.83400
H         -2.28700        2.94600        4.41500
H         -1.96400        1.73900        5.41600
H         -0.45100        0.67800        1.72900
H         -1.74300        0.00300       -0.10100
H         -2.87800        1.59000       -1.38000
H         -2.75400        3.85300       -0.83400
H         -1.48500        4.54300        0.99600
H          2.29600        3.86100        1.00700
H          4.32600        2.88400        0.36700
H          5.10300        0.98000        1.44100
H          3.81700       -0.04500        3.07800
H          1.72100        0.82900        3.63400
H          2.82900        3.77300        4.37400
H          4.96000        3.25100        5.16600
H          5.30800        3.00300        7.46800
H          3.54200        3.29200        8.94800
H          1.38700        3.75100        8.14900
H         -0.80400        2.23800        7.39000
H         -2.01100        2.42800        9.37400
H         -2.76100        4.51400       10.08400
H         -2.33600        6.41400        8.80200
H         -1.17100        6.23600        6.77700
