64
C:\Users\Javier\OneDrive - Universitat de Barcelona\Tesi\4 - Contribucions\Treballs\3-PhD\chapter_1\cif\pcp\UPEKAC.pcp.pdb
I         -2.34200       11.74800       12.11000
Ru        -2.88400        9.42500       13.38600
P         -5.08300        9.71800       12.91800
P         -3.31100        8.48000       11.33700
C         -5.02700        9.21400       11.12700
C         -2.36900        8.95800        9.84700
C         -2.97200        9.25200        8.62200
C         -2.18500        9.63600        7.53500
C         -0.81900        9.71200        7.66300
C         -0.21600        9.42300        8.87800
C         -0.99400        9.05100        9.96300
C         -3.51100        6.67400       11.09900
C         -3.30400        5.80100       12.15200
C         -3.56100        4.43400       12.01700
C         -4.02000        3.93800       10.81200
C         -4.17600        4.79400        9.72000
C         -3.91100        6.14600        9.86500
C         -6.16000        8.41800       10.49100
C         -6.33200        8.63700       13.73500
C         -7.52100        9.11500       14.27300
C         -8.41300        8.25800       14.89700
C         -8.13200        6.90200       14.98600
C         -6.95400        6.40900       14.45000
C         -6.05800        7.27300       13.83500
C         -5.91400       11.34400       12.97700
C         -5.55600       12.23700       13.97800
C         -6.19500       13.46600       14.08900
C         -7.18300       13.81300       13.17800
C         -7.54400       12.93100       12.18900
C         -6.91100       11.70300       12.08300
C         -1.44800        8.03600       14.36200
C         -2.68900        8.02000       15.06100
C         -2.90000        9.32900       15.59700
C         -1.82600       10.13300       15.19900
C         -0.91800        9.33400       14.43400
H         -4.92100       10.05200       10.59100
H         -3.91600        9.19300        8.52900
H         -2.59400        9.84500        6.70400
H         -0.28700        9.96600        6.91800
H          0.72900        9.47800        8.96600
H         -0.57900        8.86000       10.79600
H         -2.98100        6.13500       12.98000
H         -3.42100        3.84900       12.75100
H         -4.22900        3.01500       10.72600
H         -4.46300        4.45100        8.88200
H         -4.00200        6.72300        9.11500
H         -6.26600        7.56600       10.96100
H         -5.95100        8.24900        9.54800
H         -6.99400        8.93100       10.55300
H         -7.72600       10.04100       14.21100
H         -9.21900        8.60100       15.26500
H         -8.74600        6.31500       15.41300
H         -6.76000        5.48000       14.50300
H         -5.24600        6.93000       13.47800
H         -4.87000       12.00600       14.59400
H         -5.95600       14.06700       14.78600
H         -7.61000       14.66000       13.23800
H         -8.23100       13.16300       11.57500
H         -7.16300       11.10200       11.39200
H         -1.04800        7.29500       13.92200
H         -3.27100        7.27500       15.15500
H         -3.63800        9.60400       16.12800
H         -1.71700       11.05400       15.40300
H         -0.10300        9.63000       14.04400
