71
C:\Users\Javier\OneDrive - Universitat de Barcelona\Tesi\4 - Contribucions\Treballs\3-PhD\chapter_1\cif\pcp\VOWDAO.pcp.pdb
Ru         3.43200        2.06400        4.15800
S          3.94300        3.43700        6.04500
P          3.76500        3.88300        2.84900
P          1.41300        3.11400        3.83500
N          1.26000        2.67500        9.69100
C          2.92500        3.05600        7.41700
C          1.92700        2.08500        7.45100
H          1.79300        1.51500        6.70300
C          1.13300        1.95300        8.57600
H          0.44400        1.29900        8.55200
C          2.25000        3.56700        9.67000
H          2.38500        4.08500       10.45400
C          3.09900        3.80600        8.59800
H          3.78400        4.46100        8.66000
C          3.27600        0.14500        3.09300
H          2.67900       -0.05000        2.31600
C          2.98000       -0.11100        4.46600
H          2.12500       -0.48900        4.82300
C          4.12900        0.20100        5.22300
H          4.22000        0.09500        6.21400
C          5.15500        0.64200        4.33500
H          6.09400        0.87600        4.58300
C          4.61800        0.59800        3.02200
H          5.12400        0.78700        2.18000
C          2.10700        4.64500        3.07400
H          1.67000        4.88800        2.22000
H          2.11300        5.41900        3.69200
C          3.99300        3.60300        1.05300
C          3.17800        2.73700        0.38000
H          2.46300        2.31600        0.84200
C          3.37000        2.46000       -0.96600
H          2.76900        1.88000       -1.42100
C          4.42100        3.01700       -1.64200
H          4.57600        2.79500       -2.55400
C          5.24300        3.89400       -0.99400
H          5.95800        4.30400       -1.46500
C          5.04000        4.18800        0.34800
H          5.62200        4.79600        0.79000
C          4.95100        5.21100        3.20100
C          6.16800        4.89900        3.78900
H          6.37400        3.99500        3.99600
C          7.08800        5.90000        4.07800
H          7.92200        5.67500        4.47200
C          6.79100        7.21600        3.79600
H          7.41900        7.90000        4.00300
C          5.58200        7.53800        3.21400
H          5.37500        8.44400        3.02300
C          4.66900        6.54500        2.90500
H          3.84500        6.77300        2.49000
C          0.26300        2.41400        2.59000
C         -0.01500        1.05100        2.62200
H          0.40400        0.50200        3.27500
C         -0.88700        0.48700        1.72200
H         -1.07600       -0.44300        1.76400
C         -1.48600        1.26300        0.76300
H         -2.07400        0.86900        0.12900
C         -1.23000        2.61400        0.72200
H         -1.65300        3.15200        0.06400
C         -0.35800        3.20000        1.63700
H         -0.19200        4.13400        1.60500
C          0.25100        3.66600        5.13900
C          0.59100        4.70900        6.00800
H          1.41200        5.17400        5.88800
C         -0.25800        5.07000        7.03800
H         -0.02500        5.79100        7.61300
C         -1.44100        4.39100        7.23700
H         -2.02200        4.64200        7.94500
C         -1.78000        3.34200        6.40200
H         -2.59100        2.87100        6.54400
C         -0.94300        2.97500        5.36100
H         -1.18100        2.25000        4.79400
