72
C:\Users\Javier\OneDrive - Universitat de Barcelona\Tesi\4 - Contribucions\Treballs\3-PhD\chapter_1\cif\pcp\WASKIK.pcp.pdb
Pd         4.97000        0.30800        1.27400
Cl         2.85400        1.16400        0.68400
Cl         4.81600       -1.45900       -0.29100
P          6.82200       -0.29600        2.41100
P          5.41500        1.98100        2.65800
S          9.15700        1.50800        5.15200
N          8.46600        4.43100        5.68300
C          7.08000        1.37100        3.20700
C          7.39000        1.54700        4.70000
C          8.33400       -0.88700        1.63600
C          9.58200       -0.61300        2.19400
C         10.72100       -1.25200        1.70500
C         10.61400       -2.16500        0.65600
C          9.36500       -2.44000        0.09700
C          8.22400       -1.80100        0.58700
C          6.47500       -1.49000        3.73000
C          5.19400       -2.03000        3.86000
C          4.91500       -2.92800        4.89000
C          5.91800       -3.28600        5.79100
C          7.19900       -2.74800        5.66300
C          7.47700       -1.84900        4.63200
C          4.34800        2.16700        4.08600
C          3.49200        1.12000        4.43000
C          2.67200        1.22900        5.55100
C          2.70400        2.38600        6.33000
C          3.56000        3.43400        5.98700
C          4.38100        3.32400        4.86600
C          5.66100        3.62100        1.97100
C          4.80100        4.09000        0.97600
C          4.95100        5.38500        0.47800
C          5.95900        6.21100        0.97500
C          6.81900        5.74300        1.96900
C          6.66900        4.44800        2.46700
C          9.77700        2.93500        4.32200
C         10.71900        2.75200        3.30900
C         11.24700        3.85600        2.64000
C         10.83500        5.14300        2.98200
C          9.89200        5.32700        3.99400
C          9.36400        4.22300        4.66300
C         -0.28200        4.99200        0.63100
Cl         1.08700        4.52300       -0.20100
H          7.89600        1.81300        2.96000
H          7.03400        2.39400        4.97700
H          6.94600        0.84200        5.17800
H         -0.03000        5.10200        1.55200
H         -0.90000        4.25800        0.59800
H          9.65700        0.01600        2.91600
H         11.58000       -1.06300        2.09100
H         11.39600       -2.60500        0.32100
H          9.29100       -3.06900       -0.62500
H          7.36700       -1.99000        0.20100
H          4.50400       -1.78300        3.23800
H          4.03600       -3.29900        4.97900
H          5.72600       -3.90500        6.50100
H          7.88800       -2.99400        6.28400
H          8.35700       -1.47900        4.54300
H          3.46900        0.32400        3.89400
H          2.08200        0.50900        5.78800
H          2.13800        2.46200        7.10300
H          3.58300        4.23000        6.52300
H          4.97000        4.04500        4.62900
H          4.10800        3.52000        0.63500
H          4.35900        5.70600       -0.20500
H          6.06200        7.10100        0.63300
H          7.51200        6.31200        2.31100
H          7.26100        4.12600        3.15100
H         11.00400        1.86600        3.07400
H         11.89500        3.72900        1.94300
H         11.19800        5.90200        2.52200
H          9.60800        6.21300        4.22900
H          8.13800        3.72700        6.13800
H          8.20400        5.26500        5.89800
