88
C:\Users\Javier\OneDrive - Universitat de Barcelona\Tesi\4 - Contribucions\Treballs\3-PhD\chapter_1\cif\pcp\WOWDET.pcp.pdb
Sb         0.69800        2.32100        4.61400
F         -0.41300        3.46100        3.56800
F          2.20600        3.34400        4.07000
F          0.94300        1.19000        3.11200
F          1.84800        1.19600        5.63700
F          0.48700        3.44400        6.12300
F         -0.80900        1.31800        5.14300
Ru        -5.92100        2.26500       -4.04900
P         -6.54700        4.32800       -3.19100
N         -5.33600        3.17200       -5.82400
C         -5.66800        0.04800       -3.65400
P         -4.03500        3.25900       -3.05900
C         -6.67900        0.60600       -2.76400
C         -7.78800        1.06700       -3.59000
C         -7.42900        0.88300       -4.97100
C         -6.11200        0.23200       -5.00400
C         -4.44100       -0.73500       -3.20600
H         -4.66500       -1.68700       -3.14400
H         -4.14800       -0.41100       -2.32900
H         -3.71800       -0.61300       -3.85700
C         -6.64600        0.48600       -1.25200
H         -6.79300       -0.44800       -0.99500
H         -7.35200        1.04500       -0.86400
H         -5.77500        0.78400       -0.91800
C         -9.14200        1.53200       -3.08600
H         -9.47000        2.25900       -3.65500
H         -9.05400        1.85300       -2.16400
H         -9.77400        0.78500       -3.11400
C         -8.29100        1.16300       -6.19300
H         -8.72800        0.33400       -6.48000
H         -7.72800        1.50300       -6.91800
H         -8.97200        1.83000       -5.96700
C         -5.41700       -0.22500       -6.26200
H         -4.45800       -0.32600       -6.08700
H         -5.55200        0.44000       -6.96900
H         -5.79000       -1.08600       -6.54600
C         -5.00800        3.65500       -6.81700
C         -4.58500        4.31100       -8.07600
H         -5.25500        4.97700       -8.33900
H         -4.50000        3.63700       -8.78300
H         -3.72100        4.75300       -7.94100
C         -4.83000        4.91600       -2.70300
H         -4.49000        5.64200       -3.28600
H         -4.76800        5.18000       -1.75100
C         -2.57500        3.56300       -4.15400
C         -1.78200        4.72900       -4.05400
H         -2.02500        5.42000       -3.44900
C         -0.63000        4.86500       -4.85300
H         -0.10300        5.65400       -4.79600
C         -0.26000        3.84400       -5.72900
H          0.52300        3.93800       -6.25900
C         -1.03800        2.67600       -5.83200
H         -0.77700        1.97900       -6.42000
C         -2.20500        2.54700       -5.05800
H         -2.74800        1.77300       -5.14500
C         -3.13100        2.72200       -1.52800
C         -3.16200        3.41100       -0.29800
H         -3.73100        4.16500       -0.19000
C         -2.35200        2.98200        0.77500
H         -2.37600        3.45300        1.60000
C         -1.51400        1.87200        0.63900
H         -0.97100        1.59200        1.36700
C         -1.47700        1.17700       -0.57800
H         -0.91500        0.41700       -0.67300
C         -2.27200        1.60000       -1.65600
H         -2.23300        1.13000       -2.48100
C         -7.61000        4.36300       -1.68500
C         -7.12300        3.85600       -0.45200
H         -6.20600        3.62300       -0.36600
C         -7.98800        3.69800        0.64200
H         -7.65200        3.36400        1.46600
C         -9.34700        4.03100        0.52700
H         -9.93100        3.91600        1.26800
C         -9.83600        4.53300       -0.68300
H        -10.75600        4.75900       -0.76100
C         -8.98100        4.70600       -1.78100
H         -9.32400        5.05700       -2.59500
C         -7.27700        5.68300       -4.21100
C         -7.39200        6.99700       -3.69300
H         -7.03100        7.20200       -2.83900
C         -8.03700        7.99800       -4.43700
H         -8.12600        8.87300       -4.07800
C         -8.55100        7.70700       -5.71200
H         -8.98900        8.38500       -6.21400
C         -8.41700        6.42300       -6.24300
H         -8.75000        6.23400       -7.11300
C         -7.79000        5.40500       -5.49300
H         -7.71400        4.52900       -5.85400
