125
C:\Users\Javier\OneDrive - Universitat de Barcelona\Tesi\4 - Contribucions\Treballs\3-PhD\chapter_1\cif\pcp\WUBKEJ.pcp.pdb
Ru         3.51500        1.70600        0.93300
P          5.39200        2.56000       -0.00800
C          6.98000        1.67400        0.08800
C          7.27800        0.75300       -0.91500
C          8.45600        0.02300       -0.88600
C          9.34800        0.18400        0.15000
C          9.04400        1.06100        1.17300
C          7.87000        1.80500        1.14900
C          5.43300        3.21800       -1.72100
C          4.24200        3.52500       -2.35200
C          4.24100        4.15500       -3.59700
C          5.43900        4.45700       -4.21900
C          6.62600        4.15100       -3.61500
C          6.63300        3.54100       -2.36500
C          5.46100        4.09100        1.03800
P          3.67800        3.90200        1.49600
C          3.48900        4.47100        3.22200
C          2.75100        3.70000        4.11200
C          2.55300        4.13100        5.41700
C          3.09300        5.32100        5.84200
C          3.85100        6.09100        4.98000
C          4.04500        5.66600        3.66300
C          2.75000        5.20400        0.59700
C          1.41700        5.41400        0.93600
C          0.63000        6.28600        0.20800
C          1.14500        6.95400       -0.87900
C          2.45200        6.78800       -1.20300
C          3.26600        5.91200       -0.47100
C          4.73700        1.56600        2.53100
C          5.48900        1.58200        3.48800
C          6.36700        1.73300        4.61400
C          7.47400        0.90200        4.80800
C          8.29100        1.05400        5.91700
C          8.04600        2.03100        6.84400
C          6.96100        2.88300        6.66300
C          6.13400        2.74700        5.55500
C          2.11300        0.11700        1.66100
C          1.98300       -0.32600        3.08600
C          1.32600        1.10500        1.03500
C          0.16100        1.85800        1.63000
C          1.71500        1.18100       -0.34400
C          0.98900        2.01500       -1.37100
C          2.75500        0.21800       -0.55900
C          3.35700       -0.11600       -1.88400
C          3.00600       -0.44000        0.68200
C          3.91600       -1.59700        0.89500
C          1.69500        0.62900        1.54100
C          0.85800        0.81900        2.77600
C          1.45900        1.21600        0.27700
C          0.36800        2.18400       -0.07100
C          2.37100        0.63400       -0.62400
C          2.40100        0.81100       -2.16800
C          3.18700       -0.31400        0.06300
C          4.17700       -1.25400       -0.56800
C          2.72600       -0.32800        1.36300
C          3.21500       -1.26400        2.45400
C         -2.26000        6.60500        3.68000
C         -1.06200        6.04200        3.97000
C         -1.13300        4.66700        4.11200
C         -2.25900        4.01100        3.68000
H          6.65300        0.63000       -1.63600
H          8.64500       -0.59600       -1.59000
H         10.16200       -0.31800        0.17200
H          9.65700        1.16400        1.91800
H          7.66500        2.41300        1.86400
H          3.40800        3.31700       -1.92100
H          3.40800        4.37100       -4.02700
H          5.43200        4.88500       -5.07200
H          7.45600        4.37000       -4.04700
H          7.47200        3.33300       -1.93800
H          6.06800        4.03400        1.77100
H          5.65500        4.88900        0.54300
H          2.37000        2.85700        3.81800
H          2.03200        3.59200        6.02700
H          2.95200        5.62100        6.74200
H          4.25300        6.91100        5.30100
H          4.55200        6.21200        3.04700
H          1.04700        4.94100        1.70100
H         -0.29500        6.41500        0.46400
H          0.57500        7.53400       -1.39700
H          2.83900        7.27900       -1.94500
H          4.19600        5.80800       -0.71000
H          7.67200        0.22000        4.15400
H          9.03200        0.46500        6.04700
H          8.61700        2.13800        7.60600
H          6.76600        3.56200        7.31700
H          5.40400        3.35300        5.42600
H          2.82400       -0.64700        3.43500
H          1.34000       -1.02800        3.18500
H          1.69600        0.39600        3.63600
H          0.19400        2.75000        1.31500
H          0.28500        1.86500        2.58600
H         -0.65700        1.42200        1.42800
H          0.09000        1.73600       -1.44900
H          1.42000        1.93700       -2.22000
H          1.00700        2.93300       -1.10600
H          4.22800       -0.47000       -1.77800
H          3.41600        0.67400       -2.44400
H          2.81000       -0.74300       -2.34500
H          4.27300       -1.65500        1.79700
H          4.67200       -1.62300        0.30000
H          3.44900       -2.42200        0.80100
H          1.33800        1.04300        3.58400
H          0.27900        0.06900        3.00100
H          0.20700        1.51200        2.64400
H         -0.33800        1.78700       -0.58300
H          0.68200        2.95700       -0.57400
H         -0.00400        2.56200        0.71100
H          2.42900        0.04300       -2.69000
H          3.02300        1.46400       -2.49500
H          1.57800        1.29700       -2.42300
H          4.98900       -1.32600       -0.01100
H          3.83300       -2.13800       -0.65500
H          4.44900       -0.94700       -1.41400
H          2.59100       -1.90500        2.72300
H          3.54800       -0.79300        3.23100
H          4.01300       -1.74500        2.13800
H         -2.25900        7.59700        3.68000
H         -0.23800        6.59500        4.22200
H         -0.35900        4.24500        4.48300
H         -2.25900        3.08600        3.67900
C         -3.38700        4.66700        3.24900
C         -3.45800        6.04200        3.39000
H         -4.28100        6.59500        3.13900
H         -4.16000        4.24500        2.87700
