176
C:\Users\Javier\OneDrive - Universitat de Barcelona\Tesi\4 - Contribucions\Treballs\3-PhD\chapter_1\cif\pcp\WUCKEN.pcp.pdb
Rh         9.15100       12.67600       16.08800
P          7.73400       14.30300       16.87500
P         10.14600       14.68900       15.68900
C          8.83200       10.78900       17.18500
H          8.46800       10.75700       18.11700
C          8.04300       10.75900       16.09300
H          7.04500       10.69900       16.13600
C          8.88300       10.13800       14.95600
H          8.39200        9.79100       14.15800
C          9.98400       11.18400       14.71200
H         10.33000       11.41200       13.80100
C         10.76300       11.20700       15.83100
H         11.73200       11.45300       15.81900
C         10.16800       10.17000       16.80000
H         10.75600        9.85400       17.54500
C          9.69300        9.11900       15.79100
H          9.12700        8.41900       16.20000
H         10.43600        8.70700       15.28100
C          8.86400       15.74200       16.52900
H          8.46000       16.41500       15.92500
H          9.20000       16.17600       17.35200
C          6.24300       14.65200       15.81700
H          6.57300       15.18400       15.03800
C          5.62500       13.37700       15.23300
H          6.31800       12.86400       14.74600
H          5.28000       12.80900       15.96700
C          4.48300       13.73500       14.27900
H          4.84700       14.23100       13.50400
H          4.06400       12.90400       13.94100
C          3.43200       14.58100       14.96500
H          3.01600       14.06000       15.69700
H          2.72400       14.81700       14.31500
C          4.04200       15.84900       15.53100
H          3.34600       16.36800       16.00700
H          4.38900       16.40700       14.79100
C          5.18600       15.51600       16.50400
H          5.60200       16.35500       16.82500
H          4.82300       15.03300       17.28800
C          7.19800       14.38700       18.64200
H          6.63200       15.20100       18.76800
C          6.35400       13.14400       18.96600
H          5.56300       13.12100       18.37100
H          6.88900       12.32800       18.79500
C          5.89200       13.14700       20.42300
H          5.27700       13.90900       20.57200
H          5.39700       12.31200       20.61400
C          7.07200       13.25900       21.36700
H          7.63400       12.44700       21.28900
H          6.74400       13.31500       22.29800
C          7.91000       14.48800       21.05000
H          8.69300       14.51600       21.65500
H          7.37100       15.30300       21.20700
C          8.39300       14.47000       19.59300
H          8.91100       15.29200       19.40400
H          8.98800       13.69100       19.44900
C         10.35000       15.27900       13.95500
H         10.51600       16.26600       13.97000
C          9.07300       15.00700       13.15400
H          8.32900       15.53800       13.53300
H          8.83600       14.04900       13.23200
C          9.24900       15.36700       11.67300
H          8.42600       15.12600       11.17700
H          9.38400       16.34400       11.58500
C         10.43900       14.63600       11.06600
H         10.27300       13.65900       11.08400
H         10.54900       14.91100       10.12000
C         11.70900       14.95200       11.84100
H         11.91100       15.91800       11.75900
H         12.46700       14.44700       11.45000
C         11.56300       14.58600       13.31800
H         12.38400       14.85100       13.80400
H         11.46200       13.60500       13.40400
C         11.76000       15.01300       16.52000
H         12.44800       14.47500       16.03300
C         12.20800       16.47200       16.44100
H         11.55200       17.04600       16.91200
H         12.24300       16.75700       15.49300
C         13.59500       16.64100       17.08200
H         14.26300       16.12200       16.56500
H         13.85800       17.59500       17.05300
C         13.58600       16.15900       18.52700
H         14.49200       16.25300       18.91400
H         12.96400       16.71600       19.06000
C         13.14900       14.70400       18.59100
H         13.13100       14.40800       19.53600
H         13.80400       14.14200       18.10600
C         11.76200       14.51800       17.97200
H         11.09400       15.02400       18.49800
H         11.51300       13.56100       17.99800
F         -0.20100        9.48400       25.74600
F         -0.11700       11.12800       27.06900
F          1.13400        9.44900       27.37200
F         -0.79700       17.33700       27.54400
F         -0.32900       15.30900       27.94300
F          1.22100       16.66400       27.44100
C          1.18600       13.05200       21.72300
C         -0.11100       12.52100       21.74500
H         -0.68400       12.74000       22.47000
C         -0.58800       11.68400       20.74100
C          0.21000       11.34200       19.66800
H         -0.11600       10.77200       18.98300
C          1.49200       11.84900       19.61900
C          1.97100       12.68700       20.62400
H          2.85900       13.01900       20.56100
C         -2.00100       11.19900       20.81200
C          2.39200       11.50100       18.46600
C          2.25500       12.63100       23.98800
C          1.35400       12.01400       24.85600
H          0.49100       12.39700       24.96500
C          1.66900       10.86100       25.56700
C          2.91000       10.26500       25.43400
H          3.13100        9.47800       25.91800
C          3.82000       10.85100       24.57200
C          3.50500       12.00700       23.86400
H          4.15400       12.38400       23.28000
C          0.62800       10.23700       26.44000
C          5.17600       10.23200       24.43500
C          3.00300       14.89700       22.65200
C          2.99600       15.66700       21.47900
H          2.31900       15.51400       20.83100
C          3.95200       16.65000       21.23600
C          4.95000       16.91700       22.16100
H          5.60200       17.58800       21.99400
C          4.96900       16.17900       23.33300
C          4.02000       15.19300       23.56800
H          4.06200       14.70000       24.37900
C          3.87500       17.44000       19.96200
C          6.00500       16.46700       24.37700
C          0.65300       14.80800       23.73100
C         -0.36400       15.43700       22.99600
H         -0.42800       15.27400       22.06200
C         -1.28100       16.29400       23.59700
C         -1.21400       16.57900       24.95200
H         -1.84600       17.15800       25.36200
C         -0.19900       15.99700       25.69200
C          0.71300       15.12900       25.09100
H          1.40000       14.74300       25.62400
C         -2.31900       16.96800       22.75500
C         -0.02700       16.33300       27.14800
B          1.78500       13.86300       23.01500
F         -2.42400       11.00300       22.06400
F         -2.86300       12.00800       20.22700
F         -2.14000       10.00300       20.20400
F          3.49600       10.84800       18.84700
F          2.95900       12.64300       17.94200
F          1.84400       10.89500       17.47900
F          5.22900        8.91600       24.64100
F          5.94300       10.57800       25.52300
F          5.88000       10.67100       23.39400
F          2.67900       18.13900       19.94900
F          4.74300       18.48100       19.99700
F          3.94400       16.77000       18.96400
F          5.64000       17.37700       25.18200
F          7.16200       16.78000       23.85200
F          6.28500       15.45000       25.16800
F         -3.33000       17.40900       23.50600
F         -2.82800       16.09800       21.86100
F         -1.85800       17.94500       21.99400
F         -2.31500       10.65600       21.96200
F         -2.83100       12.27600       20.69600
F         -2.37300       10.39000       19.88100
F          2.63500       10.13900       18.55400
F          3.42500       12.09000       18.35000
F          1.64700       11.46100       17.35400
F          5.02400        8.91600       24.40600
F          6.09600       10.67000       25.22400
F          5.62300       10.30600       23.18800
F          3.17700       18.44600       19.92300
F          5.11400       17.70100       19.42800
F          3.41800       16.64000       18.87200
F          6.72300       17.51100       24.16500
F          6.78700       15.48600       24.54400
F          5.49500       16.70900       25.53100
F         -1.93700       18.25200       22.55800
F         -3.53100       17.03100       23.28800
F         -2.53600       16.42800       21.58600
