183
C:\Users\Javier\OneDrive - Universitat de Barcelona\Tesi\4 - Contribucions\Treballs\3-PhD\chapter_1\cif\pcp\WUCKAJ.pcp.pdb
Rh         3.79500        3.35800       -2.80600
P          5.21600        5.00800       -3.54700
P          2.78700        5.36500       -2.36800
C          4.92800        1.45700       -2.80100
H          5.92700        1.41600       -2.82100
C          2.82300        0.83000       -3.56000
H          2.25500        0.51000       -4.31700
C          4.16400        1.47700       -3.91900
H          4.54900        1.45600       -4.84200
C          2.19400        1.85300       -2.59000
H          1.22000        2.08200       -2.58900
C          2.96100        1.84000       -1.46900
H          2.59900        2.05600       -0.56200
C          4.08100        0.80100       -1.69800
H          4.56200        0.45700       -0.89100
C          3.29600       -0.22200       -2.54600
H          3.87700       -0.91500       -2.95000
H          2.55100       -0.64400       -2.05000
C          4.06700        6.42100       -3.19200
H          4.46100        7.09300       -2.58200
H          3.73200        6.85900       -4.01400
C          6.68600        5.36400       -2.47900
H          6.33200        5.86600       -1.69000
C          7.72000        6.28600       -3.12800
H          7.27300        7.11200       -3.44100
H          8.11700        5.83500       -3.91400
C          8.83400        6.65200       -2.13100
H          9.51700        7.20300       -2.58800
H          8.45100        7.18800       -1.39100
C          9.48700        5.39500       -1.56300
H          9.94800        4.90600       -2.29100
H         10.16600        5.65200       -0.89000
C          8.45900        4.49000       -0.92100
H          8.06100        4.95000       -0.14100
H          8.90600        3.66900       -0.59500
C          7.34500        4.10300       -1.90500
H          7.72500        3.56200       -2.64200
H          6.66500        3.55500       -1.43900
C          5.75600        5.10900       -5.30700
H          6.28800        5.94600       -5.42800
C          4.55600        5.15200       -6.25800
H          4.00900        5.95500       -6.06400
H          3.99000        4.35300       -6.11300
C          5.02000        5.19200       -7.71800
H          4.23100        5.18700       -8.31500
H          5.52200        6.03000       -7.88100
C          5.90600        4.00700       -8.04700
H          6.22800        4.08500       -8.98000
H          5.37800        3.17200       -7.97400
C          7.09800        3.93700       -7.10300
H          7.68100        4.72400       -7.25300
H          7.62600        3.12400       -7.30100
C          6.65400        3.90900       -5.64300
H          7.45100        3.92200       -5.05700
H          6.15900        3.07000       -5.46700
C          2.59500        5.93700       -0.63100
H          2.44100        6.92500       -0.63800
C          1.38500        5.26400        0.01900
H          0.56500        5.53100       -0.46600
H          1.47800        4.28100       -0.05900
C          1.24200        5.63800        1.49300
H          1.03700        6.60400        1.56800
H          0.48700        5.13400        1.88800
C          2.51300        5.33100        2.26800
H          2.40700        5.62700        3.20700
H          2.66900        4.35300        2.27100
C          3.71000        6.03200        1.64800
H          4.53000        5.78400        2.14400
H          3.59100        7.01200        1.72300
C          3.87100        5.65100        0.17200
H          4.09000        4.68700        0.10600
H          4.62400        6.16200       -0.21800
C          1.16400        5.71800       -3.17800
H          0.47700        5.16200       -2.71000
C          0.72600        7.17900       -3.03800
H          1.39500        7.76600       -3.47100
H          0.68200        7.41900       -2.07800
C         -0.64900        7.40100       -3.68700
H         -1.33400        6.88600       -3.19100
H         -0.88800        8.36000       -3.63200
C         -0.64200        6.96200       -5.14700
H         -1.54800        7.07600       -5.53000
H         -0.01700        7.53300       -5.66100
C         -0.22100        5.51600       -5.27000
H         -0.20300        5.26000       -6.22600
H         -0.88500        4.94200       -4.81200
C          1.16600        5.27900       -4.65500
H          1.84600        5.79500       -5.15600
H          1.39900        4.31900       -4.71700
F          6.33000        7.89200        3.01500
F          7.02700        9.62400        1.93100
F          6.33700        7.90900        0.88100
F         14.18200        0.55800        4.28900
F         15.06500        2.41900        4.73200
F         15.69600        1.33600        3.05600
F         13.05500        1.35600       -1.04300
F         11.04300        2.01600       -0.90500
F         12.56200        3.38600       -1.41400
C         10.04000        6.02600        2.60200
C         10.96200        6.68100        1.78200
H         11.84200        6.33000        1.71400
C         10.64200        7.83100        1.06000
C          9.36800        8.37100        1.13000
H          9.14100        9.14900        0.63400
C          8.44000        7.75000        1.93800
C          8.76200        6.60200        2.66600
H          8.09900        6.20100        3.21600
C         11.70800        8.47200        0.24100
C          7.04600        8.29400        1.95800
C         11.13700        5.55100        4.86900
C         10.38700        5.84600        6.01300
H          9.50800        5.49200        6.08900
C         10.88200        6.64200        7.04400
C         12.15600        7.19400        6.97000
H         12.49200        7.74200        7.66900
C         12.91600        6.92200        5.85000
C         12.42100        6.11400        4.82500
H         12.97300        5.93800        4.07200
C         10.02400        6.91000        8.24200
C         14.30700        7.46500        5.74000
C         11.64900        3.84700        2.82100
C         12.67000        3.19700        3.52900
H         12.74500        3.34500        4.46500
C         13.57500        2.34300        2.91200
C         13.49400        2.07600        1.55600
H         14.11800        1.49900        1.13200
C         12.47200        2.67500        0.83500
C         11.57900        3.54300        1.45000
H         10.89600        3.94500        0.92600
C         14.62300        1.66000        3.74200
C         12.28600        2.35500       -0.61900
C          9.31700        3.72400        3.92300
C          9.35800        2.92100        5.06700
H         10.05200        3.06200        5.70000
C          8.41800        1.92200        5.31100
C          7.38400        1.67500        4.41600
H          6.73200        1.00500        4.58700
C          7.34000        2.44700        3.26000
C          8.27800        3.44200        3.02000
H          8.21300        3.95000        2.22000
C          8.54400        1.10100        6.55300
C          6.27100        2.17900        2.24100
B         10.51900        4.77500        3.55800
F          9.77400        0.55400        6.63600
F          8.32200        1.76300        7.64000
F          7.73100        0.01500        6.52600
F          5.45100        1.21700        2.56100
F          5.59600        3.25500        1.96700
F          6.81000        1.78800        1.07100
F         12.25500        7.61400       -0.60700
F         12.76400        8.87400        1.05000
F         11.35300        9.55800       -0.39500
F          8.93100        7.60800        7.93200
F          9.50900        5.76700        8.74900
F         10.64300        7.52600        9.22500
F         15.21600        6.72500        6.30200
F         14.40100        8.69200        6.32600
F         14.71100        7.67600        4.47400
F         12.54400        7.61400       -0.33900
F         12.39700        9.36800        0.86700
F         11.13300        9.14700       -0.81900
F          9.77600        8.25300        8.21100
F          8.90000        6.34800        8.30100
F         10.78800        6.79300        9.30800
F         15.19500        6.43100        5.72100
F         14.69000        8.17900        6.75300
F         14.49000        8.10200        4.62900
F          8.94300        1.92500        7.63300
F          7.37000        0.71400        7.06300
F          9.43600        0.17700        6.64100
F          5.06900        2.06500        2.77100
F          6.12700        3.11200        1.29600
F          6.48800        1.08300        1.58300
Cl        10.90500       10.12100        5.97200
Cl         8.19300        9.54900        5.13600
C          9.85600        9.18700        4.88600
H         10.09700        9.38900        3.94700
H         10.00700        8.22100        5.03800
Cl         9.04100       10.39800        6.77400
Cl        10.41900        9.22100        4.60000
C          8.95400        9.17400        5.54600
H          8.16400        9.32200        4.96500
H          8.85200        8.27400        5.96800
