204
C:\Users\Javier\OneDrive - Universitat de Barcelona\Tesi\4 - Contribucions\Treballs\3-PhD\chapter_1\cif\pcp\WULMUO.pcp.pdb
Rh         0.09300       11.42000        7.73400
P          0.07400       11.75900        9.94100
P          0.01400       13.63500        8.04600
C         -1.36500       11.22100       10.95300
H         -1.24000       11.57700       11.85800
C          1.42000       14.67300        7.48100
H          1.30500       15.56700        7.86400
C         -2.68700       11.76400       10.42700
H         -2.83900       11.43300        9.52900
H         -2.64800       12.73200       10.39000
C          0.13500       11.05600        5.46900
H          0.11000       11.72700        4.82700
C          1.37600       10.62300        5.95700
H          2.16400       10.97300        5.61100
C          2.77400       14.13400        7.94500
H          2.78800       14.08900        8.91400
H          2.90100       13.23800        7.59900
C          1.41500        9.67400        6.95900
H          2.22900        9.37700        7.29700
C          2.56500       15.70300        5.48100
H          2.56000       15.74200        4.51200
H          2.43400       16.60300        5.81900
C         -2.59200        9.27800       11.97300
H         -2.64400        8.31000       11.99500
H         -2.42300        9.59000       12.87600
C         -1.43200        9.70500       11.06200
H         -0.59700        9.36800       11.42400
H         -1.55500        9.32100       10.18000
C         -3.91300        9.83700       11.49100
H         -4.14200        9.43600       10.63700
H         -4.61100        9.61000       12.12500
C          3.90700       15.17600        5.95700
H          4.08100       14.31400        5.55000
H          4.61000       15.78700        5.68900
C          0.20300        9.16500        7.45900
C          1.42100       14.81200        5.95700
H          1.50700       13.93400        5.55500
H          0.57500       15.19100        5.67000
C         -1.08200       10.49900        5.93400
H         -1.89300       10.76700        5.56600
C          0.06500       13.58500        9.89500
H          0.87100       13.97900       10.26400
H         -0.72200       13.97200       10.30800
C          3.90600       15.03400        7.46100
H          3.81500       15.91100        7.86500
H          4.75500       14.66100        7.74600
C         -1.04600        9.54000        6.94500
H         -1.83000        9.16000        7.27000
C         -3.85000       11.33400       11.33500
H         -3.74100       11.74100       12.20900
H         -4.68400       11.65300       10.95900
C         -3.93700       14.74800        6.80400
H         -3.76300       14.94100        5.87000
H         -4.76700       14.25000        6.85900
C          1.47300       11.29600       12.49100
H          0.63800       10.97000       12.86400
H          1.49100       12.25900       12.60800
C          2.63700       10.67900       13.27300
H          2.58900       10.95600       14.20100
H          2.57400        9.71200       13.24200
C         -2.79200       13.89600        7.37200
H         -2.99300       13.65600        8.28900
H         -2.71700       13.07600        6.85800
F          0.14900        8.26900        8.35600
C         -1.46000       14.64200        7.32600
H         -1.25800       14.77400        6.37600
C         -4.07700       16.04200        7.56300
H         -4.26000       15.85700        8.49800
H         -4.81700       16.55600        7.20400
C         -2.77900       16.83400        7.43300
H         -2.85400       17.65500        7.94400
H         -2.64400       17.07400        6.50300
C         -1.54700       16.03700        7.93300
H         -0.74100       16.52800        7.71300
H         -1.59200       15.95900        8.89900
C          1.50100       10.97900       10.99500
H          1.44100       10.00600       10.89700
C          2.87800       11.41600       10.45900
H          2.94400       11.17500        9.52100
H          2.95100       12.38100       10.52200
C          4.04000       10.78100       11.21200
H          4.00800        9.81800       11.10400
H          4.87800       11.09900       10.84200
C          3.97700       11.12300       12.67600
H          4.08400       12.08100       12.79000
H          4.70400       10.68200       13.14200
Al         2.69100        4.07500       11.93000
O          1.14300        4.65500       12.37300
F         -0.17600        5.61000       15.49800
O          3.86800        5.01400       12.72800
F         -0.13200        7.66300       13.67400
F         -1.38500        4.12800       12.12400
F          1.21700        7.27300       12.07600
F          1.85200        6.96500       14.05600
F          1.56000        4.47100       14.96600
O          2.87500        4.17300       10.23500
O          2.91700        2.46600       12.39300
F          5.73400        3.62300       11.54000
F         -0.40600        3.65800       14.59600
C          5.13900        5.35200       12.98900
F          0.52700        5.68700        9.21800
F         -2.02300        5.69700       13.46500
C          2.71100        1.18200       12.57800
F          0.91700       -0.40600       12.48300
F         -1.18500        6.14100       11.50900
F          7.34900        4.89600       12.19200
F          0.75600        1.19800       13.88500
F          3.20900        4.16300        6.72000
F          0.50500        3.56200        9.34200
C          2.54500        4.47500        9.00100
C          0.33500        5.36300       13.17400
F          4.73900        4.89500       15.31100
F          4.46400        0.91900       11.02100
F          6.41500        7.34200       12.89900
F          0.53100        1.55000       11.78500
F          6.73500        5.40600       14.74300
F          3.45700       -0.85000       11.63400
F          4.65600        7.33600       14.17200
F          4.41200        7.33400       12.06000
F          4.40400        3.18900        8.22000
F          3.22000        1.64400       14.79500
F          2.91000        6.60200        9.82800
F          4.74200        0.65300       13.62000
F          5.88500        5.61400       10.77000
F          2.71200        6.51600        7.64100
F          0.74200        4.55600        7.48900
C          0.78500        6.83600       13.22600
C          0.35100        4.78800       14.59400
F          4.51100        5.95100        8.56700
F          2.42600        0.52700       10.34300
F          2.91900       -0.40100       14.29100
C         -1.09300        5.29100       12.57000
F          5.92200        3.50500       14.23700
C          1.21700        0.82600       12.67400
C          3.37900        0.40600       11.44900
C          6.06800        4.87500       11.84500
C          3.40700        0.82300       13.89500
C          5.63400        4.78800       14.33900
C          3.18600        5.94300        8.71600
C          3.22200        3.61200        7.92700
F          2.56100        2.45400        7.96300
C          5.16600        6.88700       13.05200
C          1.06500        4.59000        8.75200
C          1.62000       11.60600       10.84700
H          2.20600       12.31800       10.51400
C         -1.40700       15.97900        8.44700
H         -0.81400       16.42200        7.82100
H         -1.02700       16.06300        9.33600
C         -1.53700       14.52400        8.08500
H         -2.06700       14.11200        8.79800
C          3.59900       10.24100       11.30100
H          3.99100        9.36500       11.16500
H          4.21500       10.89800       10.94200
C         -3.61400       16.38200        7.19200
H         -3.23800       16.85600        6.43600
H         -4.51300       16.71600        7.33900
C         -2.78200       16.64400        8.41100
H         -3.28000       16.35100        9.18900
H         -2.65600       17.60300        8.49100
C          2.30300       10.31800       10.52100
H          2.48700       10.27200        9.57000
H          1.73000        9.57100       10.75700
F         -0.01100       11.81300        4.48400
C          3.45200       10.47900       12.78700
H          2.97500        9.73600       13.18700
H          4.33200       10.52600       13.19400
C         -2.28100       14.24300        6.79400
H         -2.37400       13.28600        6.66500
H         -1.79000       14.60700        6.04100
C         -3.67400       14.90000        6.87200
H         -4.13400       14.77500        6.03200
H         -4.19400       14.45200        7.56500
C          2.70700       11.75700       13.05400
H          3.27700       12.50300       12.81300
H          2.53300       11.81800       14.00700
C          1.38700       11.90000       12.31300
H          0.73400       11.27900       12.67500
H          1.04200       12.80000       12.41900
F         -2.18000       10.97500        5.32000
C          5.22600        5.52100       14.53000
F          4.77800        6.69700       14.92300
F          6.46800        5.49700       15.00400
F          4.65800        7.65200       12.45500
F          7.36000        4.64500       12.53600
C          5.58100        6.69700       12.35900
F          5.80800        6.59400       11.06000
F          6.68600        7.20000       12.91900
F          5.89800        3.79400       11.29700
F          5.92200        3.19800       13.32500
F          4.49500        4.56600       15.04200
C          6.09400        4.24800       12.52600
F          3.38200        3.75100        6.90000
C          3.69200        4.08300        8.10100
F          4.50600        5.12100        8.08500
F          4.39000        3.12800        8.70400
C          1.32800        3.44400        8.64000
F          1.73800        2.21200        8.40300
F          0.64100        3.81800        7.59500
F          1.89100        6.23500        7.59500
C          1.98400        5.87900        8.87100
F          2.77000        6.90400        9.23600
F          0.76900        5.96300        9.41900
F          0.45700        3.33100        9.64000
H          0.23200        8.55500        8.16000
