122
C:\Users\Javier\OneDrive - Universitat de Barcelona\Tesi\4 - Contribucions\Treballs\3-PhD\chapter_1\cif\pcp\XABZIK.pcp.pdb
Pd         7.88800        1.09300        3.68200
P          9.09700        2.89900        4.29800
N          6.67800       -0.65500        3.34800
H          6.64100       -0.78100        2.43800
H          7.14500       -1.36900        3.69400
C          7.66400        3.77800        5.17000
P          6.72000        2.14500        5.31400
N          9.24800        0.11300        2.32400
H          9.58700       -0.61100        2.77900
H          8.72900       -0.22800        1.64400
C          7.94500        4.53400        6.46000
H          8.47800        5.33200        6.26300
H          8.43900        3.95500        7.07700
H          7.09600        4.80100        6.87300
C          6.95200        4.69700        4.16900
H          6.13900        5.06100        4.57800
H          6.71300        4.18500        3.37000
H          7.54900        5.43300        3.92000
C          9.84200        3.92500        3.00500
C          9.09700        4.18200        1.84700
H          8.23300        3.80200        1.74500
C          9.62200        4.99300        0.85100
H          9.10400        5.18300        0.07600
C         10.87700        5.52000        0.97600
H         11.22000        6.08700        0.29600
C         11.65300        5.23500        2.08500
H         12.53600        5.58000        2.15500
C         11.13000        4.44100        3.09500
H         11.66000        4.24700        3.85900
C         10.34400        2.54500        5.56400
C         10.99200        3.57200        6.26800
H         10.83600        4.48100        6.03700
C         11.86200        3.25300        7.30500
H         12.30700        3.94900        7.77300
C         12.08500        1.94100        7.65900
H         12.66200        1.73700        8.38600
C         11.46900        0.92500        6.95900
H         11.63200        0.01900        7.19400
C         10.61300        1.22400        5.90900
H         10.20500        0.51800        5.42000
C          7.08400        1.40600        6.93400
C          7.74200        0.18300        6.96300
H          7.94000       -0.26300        6.14800
C          8.11800       -0.39600        8.16700
H          8.58200       -1.22600        8.17000
C          7.82000        0.23000        9.35400
H          8.09400       -0.15400       10.17900
C          7.11900        1.41700        9.34300
H          6.88100        1.83000       10.16300
C          6.75700        2.01600        8.14600
H          6.28800        2.84300        8.15100
C          4.92200        2.41700        5.20600
C          4.08800        2.21500        6.29200
H          4.44800        1.89900        7.11200
C          2.72700        2.47000        6.18800
H          2.16000        2.33200        6.93700
C          2.20000        2.92400        5.00800
H          1.27000        3.10800        4.94700
C          3.00900        3.11400        3.90900
H          2.63700        3.42500        3.09300
C          4.36500        2.85200        3.99800
H          4.92000        2.96700        3.23600
C          5.32300       -0.76900        3.83900
C          4.26900       -0.34600        3.03600
H          4.44000        0.02700        2.17800
C          2.97800       -0.47200        3.49200
H          2.26400       -0.18900        2.93100
C          2.68000       -0.99500        4.73100
C          3.74700       -1.40500        5.52700
H          3.57800       -1.76800        6.38700
C          5.05200       -1.29000        5.07900
H          5.76800       -1.57600        5.63300
C          1.25600       -1.10600        5.20600
H          0.91100       -0.21400        5.41700
H          1.22400       -1.66700        6.00800
H          0.70900       -1.51300        4.50200
C         10.37400        0.74900        1.69000
C         11.59600        0.82800        2.33600
H         11.69800        0.47100        3.21100
C         12.66900        1.43100        1.70100
H         13.50300        1.48900        2.15500
C         12.56000        1.94700        0.43100
C         11.32600        1.86200       -0.19800
H         11.22300        2.21900       -1.07100
C         10.24800        1.26800        0.42000
H          9.41300        1.21600       -0.03200
C         13.73400        2.59900       -0.27400
H         13.56100        2.62600       -1.23700
H         14.54700        2.07800       -0.10200
H         13.85300        3.51000        0.06400
Cl         4.63400       -5.27300        2.72700
Cl         1.90200       -4.39600        3.16600
C          3.53600       -3.96300        2.79400
H          3.54600       -3.49800        1.92000
H          3.85400       -3.32000        3.47800
S          6.02400        2.12300        0.08200
F          4.70600        3.88800       -1.30700
O          5.02900        1.15100       -0.28600
F          5.94600        4.71200        0.22700
O          6.39300        2.08200        1.47000
F          4.10200        3.77400        0.72900
O          7.10800        2.23700       -0.84100
C          5.15100        3.71100       -0.07700
S          9.50300       -2.79400        5.44500
F         11.27700       -3.76500        3.85000
O          9.10800       -1.87200        4.44700
C         10.26600       -4.17200        4.52700
F         10.62600       -5.13000        5.36100
O          8.37600       -3.40100        6.10600
F          9.40100       -4.72300        3.70500
O         10.50000       -2.38300        6.35800
O          8.43900       -2.69300        5.15000
O         10.34100       -1.70200        4.17700
S          9.88400       -2.59000        5.14400
F         11.57400       -4.36200        4.62200
F          9.98200       -4.21900        3.24900
F          9.77400       -5.21200        5.11500
Cl         2.89700       -5.36200        3.71000
Cl         1.07900       -6.01500        5.21000
C          1.71000       -4.84100        4.44100
H          1.06100       -4.45300        3.80500
H          1.98900       -4.12600        5.07400
