83
C:\Users\Javier\OneDrive - Universitat de Barcelona\Tesi\4 - Contribucions\Treballs\3-PhD\chapter_1\cif\pcp\XAFRAX.pcp.pdb
Cd        -1.48900       10.00500        4.82100
Cl         0.39800        8.48600        4.41300
Cl        -1.17000       11.46400        6.76300
Pd         4.53300       11.86800        1.05500
S          5.69000       11.95200       -0.99100
S          6.62200       12.78600        1.59000
P          2.46300       11.00800        0.60400
P          3.40500       11.77700        3.02400
N          8.11500       13.06300       -0.63300
C          6.98200       12.67000       -0.10200
C          8.36600       12.95800       -2.08300
H          7.73700       12.32900       -2.46700
H          9.25800       12.60600       -2.22400
C          8.24500       14.25200       -2.79500
H          7.41100       14.66700       -2.56500
H          8.27900       14.10000       -3.74100
H          8.96900       14.82700       -2.53800
C          9.18400       13.60100        0.22400
H         10.03900       13.40000       -0.18100
H          9.14900       13.15100        1.08400
C          9.08800       15.05500        0.44400
H          9.15400       15.51100       -0.39700
H          9.80500       15.33700        1.01800
H          8.24600       15.26300        0.85600
C          1.90300       10.95100        2.35700
H          1.79500       10.04500        2.68700
H          1.09300       11.46200        2.50900
C          2.26500        9.37500       -0.13500
C          2.48300        9.22700       -1.46000
H          2.71400        9.96700       -1.97300
C          2.36900        7.97300       -2.06700
H          2.50600        7.89600       -2.98400
C          2.06600        6.89100       -1.36200
H          2.00900        6.05600       -1.76900
C          1.85700        7.03100       -0.08500
H          1.64700        6.27600        0.41900
C          1.93000        8.27900        0.56500
H          1.75000        8.34300        1.47500
C          1.39600       12.14400       -0.32400
C          1.95100       13.17400       -1.04000
H          2.87400       13.28900       -1.04100
C          1.15700       14.04200       -1.75500
H          1.54300       14.73600       -2.23900
C         -0.17900       13.88900       -1.75300
H         -0.71200       14.48100       -2.23300
C         -0.76500       12.86400       -1.04700
H         -1.69100       12.76400       -1.05500
C          0.01700       11.98100       -0.32200
H         -0.37400       11.28700        0.15800
C          4.19000       10.79500        4.34100
C          3.79400        9.55700        4.70400
H          3.06200        9.16600        4.28500
C          4.47400        8.85200        5.71200
H          4.18700        8.00700        5.97100
C          5.56000        9.41500        6.30300
H          6.01800        8.95200        6.96600
C          5.98500       10.66500        5.93000
H          6.72900       11.04800        6.33900
C          5.30100       11.35300        4.93700
H          5.59200       12.19600        4.67300
C          2.86200       13.30200        3.81100
C          1.85900       13.25000        4.76600
H          1.48400       12.43100        5.00300
C          1.41900       14.40500        5.36100
H          0.73700       14.36800        5.99400
C          1.98100       15.61500        5.03000
H          1.68600       16.39000        5.45200
C          2.96600       15.68800        4.08700
H          3.34300       16.51000        3.86900
C          3.40500       14.52400        3.45200
H          4.05600       14.56900        2.79300
Cl         1.12900       10.91300       10.14200
Cl         1.81800       13.56300        9.29300
Cl         3.08500       11.33700        8.07300
C          1.61800       11.90900        8.79400
H          0.90800       11.87700        8.11700
Cl         5.61400        9.70200       -3.96800
Cl         4.17400       10.10900       -6.38400
Cl         6.37000        8.52200       -6.41300
C          4.98000        9.05000       -5.41000
H          4.40600        8.28300       -5.20300
Cl        -3.37700        8.48600        5.23000
Cl        -1.80900       11.46400        2.88000
