91
C:\Users\Javier\OneDrive - Universitat de Barcelona\Tesi\4 - Contribucions\Treballs\3-PhD\chapter_1\cif\pcp\XAGGOE.pcp.pdb
Ru       -22.93300       -2.28100       -4.43200
S        -24.98900       -1.11000       -4.80600
P        -22.08000       -0.56100       -5.63300
P        -22.39700       -0.59400       -3.02800
C        -27.14600       -0.02000       -3.60300
H        -27.80900       -0.02400       -2.88100
H        -27.60200       -0.11900       -4.46600
H        -26.65200        0.82600       -3.59000
C        -26.17500       -1.17900       -3.40800
H        -25.66700       -1.01900       -2.56200
C        -26.92300       -2.47100       -3.26800
C        -27.03200       -3.07300       -2.03600
H        -26.59000       -2.69400       -1.28600
C        -27.77800       -4.22200       -1.88100
H        -27.85100       -4.62000       -1.02200
C        -28.41300       -4.79500       -2.93900
H        -28.91400       -5.59400       -2.82000
C        -28.32500       -4.21000       -4.18900
H        -28.75700       -4.60700       -4.93600
C        -27.59900       -3.04000       -4.33900
H        -27.56500       -2.61900       -5.19000
C        -24.85700       -4.27100       -6.32400
H        -25.20400       -5.18800       -6.32600
H        -24.51100       -4.05000       -7.21500
H        -25.57700       -3.64900       -6.08900
C        -22.37100       -4.07500       -5.60000
H        -21.96100       -4.06200       -6.51300
C        -23.76500       -4.15900       -5.32900
C        -23.91000       -4.20400       -3.91400
H        -24.77200       -4.30400       -3.41800
C        -22.61500       -4.17600       -3.32600
H        -22.41700       -4.25500       -2.34900
C        -21.64200       -4.12400       -4.37400
C        -20.19600       -4.34400       -4.22300
C        -19.30700       -3.99600       -5.22700
H        -19.62900       -3.56600       -6.01000
C        -17.95000       -4.26500       -5.10600
H        -17.34800       -4.00000       -5.79200
C        -17.48200       -4.91400       -3.99500
H        -16.55400       -5.10400       -3.91400
C        -18.34900       -5.29200       -2.99700
H        -18.02500       -5.75400       -2.23100
C        -19.69400       -4.99800       -3.11100
H        -20.28700       -5.25000       -2.41200
C        -22.26000        0.70600       -4.32400
H        -23.07800        1.25500       -4.42000
H        -21.46200        1.28200       -4.22200
C        -22.93500        0.01600       -7.12200
C        -23.70700       -0.86400       -7.85100
H        -23.77800       -1.76700       -7.56500
C        -24.37600       -0.46300       -8.97500
H        -24.89800       -1.08300       -9.47300
C        -24.28300        0.84900       -9.37900
H        -24.75100        1.13800      -10.15200
C        -23.53400        1.72500       -8.68600
H        -23.47200        2.62900       -8.97400
C        -22.84900        1.31100       -7.55100
H        -22.31600        1.93200       -7.06800
C        -20.36300       -0.48900       -6.21000
C        -20.02200       -1.15600       -7.37500
H        -20.69100       -1.63300       -7.85000
C        -18.74500       -1.14500       -7.85800
H        -18.52900       -1.63700       -8.64200
C        -17.76200       -0.41600       -7.20700
H        -16.87900       -0.37800       -7.55600
C        -18.07700        0.24500       -6.05800
H        -17.40600        0.73600       -5.59700
C        -19.36400        0.20600       -5.56000
H        -19.56700        0.66800       -4.75500
C        -20.82200       -0.54000       -2.11100
C        -19.79900       -1.40500       -2.43300
H        -19.92600       -2.03700       -3.13100
C        -18.58400       -1.37200       -1.76200
H        -17.89100       -1.97600       -1.99800
C        -18.39400       -0.45900       -0.75200
H        -17.56700       -0.42700       -0.28800
C        -19.40000        0.40000       -0.42100
H        -19.26600        1.03100        0.27600
C        -20.60000        0.36600       -1.07800
H        -21.29000        0.96900       -0.82600
C        -23.52700        0.01600       -1.73200
C        -23.81400       -0.82000       -0.67300
H        -23.40000       -1.67300       -0.62200
C        -24.69700       -0.42900        0.31100
H        -24.88500       -1.00400        1.04500
C        -25.30500        0.80900        0.22000
H        -25.92000        1.08400        0.88900
C        -25.02600        1.63200       -0.82300
H        -25.44600        2.48300       -0.87600
C        -24.15100        1.24700       -1.79300
H        -23.96900        1.83100       -2.52100
