70
C:\Users\Javier\OneDrive - Universitat de Barcelona\Tesi\4 - Contribucions\Treballs\3-PhD\chapter_1\cif\pcp\XAPKEE.pcp.pdb
Ru         3.40900        8.91500        4.71300
P          4.44400        8.49400        2.71900
P          4.26700       10.94100        3.90300
C          5.01000       10.21300        2.37600
H          4.65500       10.55400        1.58900
H          5.93200       10.33800        2.35300
C          5.16500        8.54300        6.05100
H          5.65700        9.33400        6.05100
H          5.68900        7.77600        5.97400
C          3.97000        8.49500        6.78400
C          3.57500        7.21900        7.47700
H          2.61700        7.15900        7.51800
H          3.93500        7.21300        8.36600
H          3.92100        6.46800        6.98800
C          3.17700        9.65700        6.81200
H          3.54700       10.50100        6.92000
H          2.32300        9.61100        7.17100
C          1.43300        9.13800        3.71300
H          1.50800        8.80300        2.84800
H          0.88700        9.87900        3.85900
C          1.38400        8.13000        4.67900
C          2.24700        7.01700        4.54200
H          2.43800        6.66000        3.70100
H          2.30700        6.39900        5.23500
C          0.42700        8.24500        5.84500
H          0.79000        7.78300        6.60300
H         -0.41700        7.85400        5.60600
H          0.30000        9.17100        6.06400
C          5.94900        7.46000        2.61100
C          6.93400        7.70800        1.69200
H          6.82400        8.39500        1.07600
C          8.10000        6.94000        1.66900
H          8.77000        7.12600        1.05100
C          8.25100        5.92400        2.55500
H          9.03600        5.42400        2.55700
C          7.25400        5.62900        3.44500
H          7.34600        4.90300        4.01800
C          6.11800        6.40300        3.49400
H          5.45800        6.21500        4.12200
C          3.58900        7.96800        1.18100
C          2.76200        8.83700        0.47700
H          2.66800        9.71500        0.77000
C          2.07600        8.42100       -0.64700
H          1.54300        9.02100       -1.11600
C          2.18400        7.12200       -1.07000
H          1.71900        6.83800       -1.82200
C          2.98000        6.24300       -0.38300
H          3.05000        5.36100       -0.66900
C          3.67600        6.65700        0.73200
H          4.21300        6.05100        1.19000
C          2.99700       12.11700        3.21600
H          2.43900       11.57500        2.61900
C          2.04900       12.63600        4.29800
H          1.83900       11.92500        4.90800
H          1.24100       12.95600        3.88800
H          2.47100       13.35400        4.77500
C          3.54600       13.24300        2.34200
H          4.14100       12.87700        1.68300
H          4.02500       13.86900        2.89100
H          2.82000       13.69200        1.90400
C          5.62200       12.07500        4.50000
H          5.77200       12.71800        3.77600
C          6.95100       11.38300        4.72200
H          7.09700       10.74000        4.02400
H          6.94100       10.93700        5.57200
H          7.65600       12.03400        4.71000
C          5.21200       12.89600        5.70600
H          4.96700       12.30800        6.42400
H          4.46200       13.45000        5.47600
H          5.94700       13.44900        5.98100
