59
C:\Users\Javier\OneDrive - Universitat de Barcelona\Tesi\4 - Contribucions\Treballs\3-PhD\chapter_1\cif\pcp\XOWHIA.pcp.pdb
Pd        -0.22200        2.63300        4.86500
Br        -1.67300        0.88100        5.77600
Br        -0.85300        4.28700        6.59100
Cl        -1.67300        0.88100        5.77600
Cl        -0.85300        4.28700        6.59100
P          1.36500        3.85400        3.85400
P          0.54300        1.36500        3.19000
N          1.75100        2.98200        0.49500
C          2.02400        2.43700        2.83800
C          2.61600        2.66700        1.47600
C          2.30000        3.25800       -0.71700
C          3.61600        3.23200       -0.98000
C          4.48800        2.89900        0.03700
C          3.97300        2.60200        1.28200
C          3.18800        3.40900        5.90800
C          2.75200        4.47300        4.89500
C          2.39200        5.76700        5.64400
C         -0.26800        6.04800        3.21000
C          0.86700        5.16900        2.66900
C          2.04100        6.00000        2.15400
C          2.02800       -0.33400        4.83200
C          1.18800       -0.31500        3.56900
C          1.92000       -0.88800        2.36800
C         -1.41200        2.43400        1.44800
C         -0.57900        1.17300        1.73700
C         -1.48700       -0.01200        1.92600
H          2.74300        2.06000        3.36800
H          1.72200        3.47200       -1.41700
H          3.94000        3.43800       -1.82800
H          5.39900        2.87700       -0.10300
H          4.53800        2.36600        1.97200
H          3.51700        4.66400        4.31300
H          3.95400        3.72800        6.38700
H          3.41400        2.60400        5.44200
H          2.46600        3.23400        6.53100
H          1.66300        5.60000        6.24300
H          2.14500        6.45100        5.01100
H          3.15200        6.05900        6.14100
H          0.49600        4.69800        1.88900
H          0.07300        6.62100        3.90200
H         -0.96300        5.48100        3.57300
H         -0.62700        6.58700        2.50600
H          1.75100        6.53600        1.39700
H          2.75800        5.41300        1.88900
H          2.34900        6.58700        2.85500
H          0.40900       -0.88500        3.73800
H          2.18900       -1.24300        5.09300
H          1.56100        0.11900        5.52400
H          2.86000        0.10200        4.66200
H          2.71400       -0.37400        2.19700
H          1.34200       -0.86800        1.60200
H          2.17400       -1.80400        2.54700
H         -0.01500        1.00400        0.94500
H         -2.01400        2.26400        0.71900
H         -0.83200        3.14900        1.19100
H         -1.91200        2.67200        2.23900
H         -1.99900        0.10200        2.73100
H         -0.96300       -0.81700        1.99200
H         -2.08700       -0.08500        1.17100
