130
C:\Users\Javier\OneDrive - Universitat de Barcelona\Tesi\4 - Contribucions\Treballs\3-PhD\chapter_1\cif\pcp\XUHQIC.pcp.pdb
Ru        12.82300       -1.85500        0.96600
Cl        12.47700        0.44000        0.34600
P         13.73000       -2.23700       -1.11500
N         12.25300       -3.45400       -3.15100
C         12.30400       -3.23100       -1.69800
H         12.50000       -4.14200       -1.33500
P         11.08500       -2.55100       -0.48700
C         15.03800       -3.35400       -1.77900
H         15.92600       -2.92500       -1.69500
H         15.05100       -4.20300       -1.26900
N         14.73300       -3.62400       -3.21300
N         13.66000       -1.47100       -3.73700
C         13.77200       -0.91100       -2.37400
H         13.02500       -0.28100       -2.21500
H         14.61900       -0.40600       -2.29300
C         13.43800       -4.28300       -3.45500
H         13.39500       -5.10500       -2.90500
H         13.39500       -4.55600       -4.40500
C         14.77500       -2.38600       -4.00400
H         15.62500       -1.91600       -3.81600
H         14.76900       -2.62200       -4.96700
C         12.39600       -2.20700       -3.91700
H         11.64900       -1.60500       -3.66900
H         12.29600       -2.42000       -4.87800
C         10.08300       -4.03900       -0.01800
H         10.72900       -4.68100        0.39300
C          9.02000       -3.77500        1.05200
H          9.42800       -3.30900        1.81200
H          8.30700       -3.21900        0.67600
H          8.64400       -4.62700        1.35700
C          9.48000       -4.77300       -1.23600
H         10.18200       -4.92900       -1.90200
H          9.10700       -5.63200       -0.94700
H          8.77000       -4.22400       -1.62900
C         10.02800       -1.21700       -1.18800
H         10.65900       -0.53100       -1.55100
C          9.21800       -0.50600       -0.10500
H          9.81100       -0.25200        0.63200
H          8.80500        0.29800       -0.48300
H          8.52000       -1.10700        0.22800
C          9.14400       -1.62900       -2.35700
H          9.68900       -2.08200       -3.03400
H          8.44500       -2.23900       -2.03900
H          8.72900       -0.83300       -2.74900
C         12.74300       -1.26000        3.18000
C         14.08100       -1.20800        2.71600
H         14.53400       -0.31700        2.67100
C         14.69200       -2.28500        2.10200
H         15.58200       -2.17000        1.66100
C         13.93300       -3.47800        1.87800
H         14.30200       -4.22100        1.32000
C         12.59000       -3.51400        2.33300
H         12.00700       -4.28300        2.07000
C         12.02500       -2.43600        3.00100
H         11.03800       -2.42600        3.15400
C         12.11300       -0.04500        3.80000
H         12.77100        0.68100        3.84100
H         11.34700        0.23900        3.25800
H         11.80800       -0.26200        4.70700
Cl        11.11100        4.30100        3.01400
C         10.98800        3.31000        1.56300
H         11.55500        3.70000        0.85100
H         11.32700        2.40000        1.75800
Cl         9.35200        3.20500        1.00000
Ru         7.67300        1.96900        6.78500
Cl         7.84700       -0.38400        7.26100
P          6.92700        2.26900        8.93500
P          9.53800        2.45400        8.17400
N          8.56600        3.28000       10.95100
N          6.10600        3.57400       11.17300
N          7.09100        1.34800       11.51200
C          8.43200        3.14000        9.49600
H          8.27600        4.08100        9.19100
C          5.71900        3.41400        9.75600
H          5.72700        4.29400        9.30200
H          4.80400        3.04000        9.69600
C          6.86800        0.87000       10.13100
H          5.98700        0.42300       10.07400
H          7.56400        0.20700        9.89600
C          7.45400        4.15500       11.37100
H          7.51000        5.00300       10.86400
H          7.56700        4.37200       12.33100
C          6.04700        2.30700       11.90900
H          5.15900        1.89400       11.76300
H          6.13500        2.49600       12.87700
C          8.40700        1.99800       11.64900
H          8.58100        2.14500       12.61300
H          9.09900        1.37400       11.31400
C         10.62000        3.88400        7.72900
H          9.99800        4.58200        7.37200
C         11.60200        3.60600        6.59700
H         11.12900        3.18800        5.84800
H         12.00600        4.44800        6.30000
H         12.30600        3.00200        6.91500
C         11.32100        4.54100        8.93000
H         10.66500        4.70700        9.64000
H         12.02200        3.94300        9.26600
H         11.72200        5.39000        8.65100
C         10.53300        1.02000        8.75400
H          9.88000        0.36700        9.13700
C         11.23500        0.29500        7.59800
H         10.58500        0.10000        6.89100
H         11.94600        0.86500        7.23800
H         11.62100       -0.54400        7.92600
C         11.52300        1.33900        9.87500
H         11.05700        1.80100       10.60100
H         11.91200        0.50500       10.21200
H         12.23700        1.91300        9.52600
C          7.50500        1.45700        4.55700
C          6.19100        1.60500        5.13300
H          5.60000        0.80000        5.18900
C          5.82000        2.74900        5.82100
H          4.96400        2.75300        6.33900
C          6.74900        3.80200        6.01100
H          6.53300        4.55700        6.63200
C          8.04100        3.68300        5.46000
H          8.74300        4.35200        5.70500
C          8.40800        2.52000        4.71600
H          9.37100        2.37500        4.49100
C          7.92100        0.18900        3.86000
H          7.16600       -0.43700        3.84400
H          8.19500        0.39400        2.94300
H          8.67100       -0.21900        4.34200
Cl        16.88400       -0.61600        0.12400
C          9.63200       -3.17200        6.15100
H          9.53000       -2.19000        6.08500
H          9.06600       -3.48800        6.89900
Cl        11.30900       -3.55700        6.49400
Cl         9.08100       -3.91200        4.65700
Cl         7.81500        6.28800        8.22000
