390
C:\Users\Javier\OneDrive - Universitat de Barcelona\Tesi\4 - Contribucions\Treballs\3-PhD\chapter_1\cif\pcp\XUMHAP.pcp.pdb
Rh         8.44400       -0.24400        4.43600
P          8.88000        1.52100        3.22500
P          8.03500        1.47500        5.71600
O          8.99000       -1.75800        3.13100
O          8.07300       -1.63400        5.90200
C         10.53500        2.01700        2.47200
H         10.93800        2.70700        3.07300
C         10.20300        2.70800        1.14200
H         10.84900        3.43700        0.97100
H         10.26800        2.05500        0.40000
C          8.79300        3.27200        1.21100
H          8.48700        3.55300        0.31300
H          8.76000        4.05200        1.81700
C          7.90300        2.12000        1.75400
H          7.92800        1.38900        1.07200
C          8.57300        2.78700        4.54900
H          9.39300        3.26100        4.83800
H          7.85700        3.43000        4.32000
C          6.39300        2.07400        6.43900
H          6.16600        2.92400        5.96600
C          6.68900        2.44500        7.89500
H          6.13100        3.21600        8.16600
H          6.46900        1.68100        8.48600
C          8.17000        2.80200        8.03700
H          8.36700        3.66800        7.60200
H          8.42900        2.85600        8.99100
C          8.90700        1.66600        7.34000
H          8.72000        0.83600        7.86600
C         11.56400        0.93700        2.28600
C         11.31400       -0.17500        1.48700
H         10.44200       -0.30900        1.13500
C         12.31700       -1.09300        1.19700
H         12.12800       -1.83700        0.63300
C         13.56600       -0.93400        1.70900
H         14.25500       -1.55200        1.49300
C         13.81900        0.11900        2.54100
H         14.68800        0.21100        2.91700
C         12.83000        1.07800        2.85900
H         13.02200        1.80000        3.44600
C          6.45100        2.43900        1.99700
C          5.49900        1.41000        1.96200
H          5.78700        0.52300        1.79300
C          4.16900        1.64600        2.16300
H          3.54600        0.93100        2.12000
C          3.73100        2.93500        2.43200
H          2.80900        3.10800        2.57600
C          4.64000        3.95900        2.49100
H          4.34300        4.84000        2.68400
C          5.97600        3.72100        2.27400
H          6.58900        4.44600        2.31100
C          5.23300        1.14900        6.23700
C          5.23200       -0.14300        6.74300
H          6.00400       -0.45900        7.19500
C          4.15300       -0.97800        6.61000
H          4.18100       -1.86500        6.95800
C          3.00500       -0.50900        5.95500
H          2.24600       -1.07000        5.85800
C          2.98400        0.76100        5.45700
H          2.20700        1.07300        5.00900
C          4.08700        1.59800        5.59400
H          4.05500        2.47900        5.24500
C         10.42600        1.76900        7.21300
C         11.18600        0.64900        7.37900
H         10.76500       -0.18000        7.57400
C         12.55700        0.70600        7.27100
H         13.07200       -0.07800        7.41400
C         13.18300        1.87800        6.96800
H         14.12900        1.90200        6.88100
C         12.43700        3.04000        6.78700
H         12.86700        3.85800        6.56800
C         11.03800        2.98900        6.93300
H         10.51700        3.77700        6.84300
C          9.09500       -3.00000        3.44200
C          8.75100       -3.55900        4.67400
H          8.85200       -4.50000        4.75500
C          8.27800       -2.89200        5.80000
C          9.66400       -3.89000        2.36300
H          9.85500       -3.35600        1.56600
H          9.01200       -4.58900        2.14100
H         10.49000       -4.30700        2.68400
C          7.95700       -3.68600        7.05600
H          7.63700       -3.07700        7.75500
H          8.76400       -4.14400        7.36500
H          7.26200       -4.34700        6.85700
Rh        12.23400        8.74000       13.19000
P         11.89600        7.00400       11.88700
P         12.48600        6.98300       14.45200
O         11.92100       10.32100       11.88000
O         12.54600       10.10600       14.72500
C         10.32300        6.51100       11.02000
H          9.94600        5.71600       11.49300
C         10.77100        6.04900        9.60300
H         10.15000        5.35600        9.26600
H         10.74500        6.81700        8.98000
C         12.15000        5.49900        9.66200
H         12.51000        5.37300        8.74700
H         12.15400        4.62600       10.12500
C         12.98900        6.51300       10.42800
H         13.03700        7.32300        9.84300
C         12.11500        5.70400       13.17500
H         12.87400        5.09500       12.99700
H         11.28800        5.19000       13.36200
C         14.04500        6.41100       15.33000
H         14.31600        5.54300       14.91500
C         13.62500        6.11400       16.76400
H         14.20000        5.40700       17.14900
H         13.71700        6.92900       17.32000
C         12.17800        5.65700       16.74800
H         11.81800        5.61800       17.66800
H         12.10400        4.75800       16.33800
C         11.40700        6.68300       15.92100
H         11.43000        7.53000       16.45000
C          9.23900        7.60100       10.98800
C          9.41600        8.76300       10.31000
H         10.27900        8.94600        9.95800
C          8.43300        9.68300       10.10100
H          8.60000       10.46800        9.59300
C          7.18400        9.44200       10.64400
H          6.48300       10.07000       10.51900
C          6.96200        8.29700       11.36100
H          6.11100        8.14500       11.75400
C          7.97700        7.36300       11.51400
H          7.80700        6.55500       11.98400
C         14.39100        6.14400       10.71400
C         15.41400        7.05700       10.64200
H         15.21100        7.95100       10.38600
C         16.72900        6.73200       10.92600
H         17.40900        7.39400       10.85600
C         17.05300        5.45800       11.30500
H         17.94800        5.22700       11.52500
C         16.05900        4.52100       11.36400
H         16.29100        3.63400       11.60500
C         14.72100        4.80700       11.09100
H         14.05300        4.13300       11.15200
C         15.23400        7.35500       15.20700
C         15.22800        8.59300       15.82500
H         14.45800        8.87500       16.30700
C         16.32100        9.42200       15.75400
H         16.30700       10.25700       16.20600
C         17.42900        9.05800       15.03700
H         18.17900        9.64200       14.98800
C         17.44600        7.85900       14.40000
H         18.21100        7.60100       13.89500
C         16.34600        7.00700       14.47800
H         16.36500        6.17500       14.02400
C          9.95600        6.42500       15.62600
C          9.06400        7.45600       15.54700
H          9.37000        8.34800       15.67400
C          7.69600        7.22400       15.28400
H          7.08800        7.95400       15.22800
C          7.26000        5.95000       15.11000
H          6.34100        5.78400       14.93200
C          8.13300        4.91800       15.18300
H          7.82600        4.02800       15.05100
C          9.44700        5.14600       15.45100
H         10.03700        4.40500       15.51700
C         11.93800       11.56900       12.18400
C         12.21200       12.09100       13.44500
H         12.20700       13.03900       13.52600
C         12.49500       11.35700       14.61300
C         11.58900       12.52200       11.06900
H         11.41800       12.01300       10.24700
H         12.33600       13.14100       10.91900
H         10.78800       13.03200       11.30900
C         12.75800       12.10800       15.90300
H         12.93800       11.46600       16.62400
H         11.97300       12.64500       16.13700
H         13.53500       12.69600       15.78800
Rh        15.88600       -0.29700       12.99600
P         15.59900       -1.51800       14.77100
P         16.49700        0.95500       14.69000
O         15.25100       -1.73500       11.66500
O         16.23000        0.99900       11.40900
C         14.00900       -2.30000       15.40700
H         13.81000       -1.88800       16.29700
C         14.37200       -3.77100       15.66000
H         13.77100       -4.15700       16.34500
H         14.27200       -4.29600       14.82800
C         15.80500       -3.82100       16.13900
H         16.11800       -4.75800       16.20600
H         15.89200       -3.39300       17.02800
C         16.61700       -3.04900       15.07800
H         16.59200       -3.59000       14.24000
C         16.10800       -0.28000       16.03800
H         16.89900       -0.55400       16.56500
H         15.36900        0.00300       16.63400
C         18.20600        1.60300       15.14200
H         18.59000        1.01600       15.85500
C         17.94800        3.02300       15.75000
H         18.60500        3.19300       16.47100
H         18.08200        3.70900       15.04700
C         16.58600        3.13800       16.29000
H         16.35600        4.08900       16.44600
H         16.51100        2.65300       17.14900
C         15.64400        2.52000       15.23400
H         15.64800        3.13800       14.44800
C         12.78000       -2.12400       14.54600
C         12.70200       -2.64800       13.25500
H         13.45000       -3.10100       12.88200
C         11.56400       -2.51700       12.52400
H         11.51200       -2.92800       11.66700
C         10.49200       -1.81000       12.98600
H          9.71900       -1.69500       12.44700
C         10.55000       -1.27000       14.25300
H          9.80700       -0.79100       14.60200
C         11.69000       -1.42700       15.00500
H         11.72500       -1.04300       15.87500
C         18.05900       -2.76000       15.36900
C         18.89600       -2.36300       14.34000
H         18.54400       -2.23800       13.46700
C         20.24000       -2.14700       14.57400
H         20.81100       -1.90200       13.85300
C         20.76200       -2.28600       15.84400
H         21.69000       -2.15000       15.99700
C         19.94900       -2.61200       16.86400
H         20.29800       -2.66600       17.74500
C         18.60500       -2.87300       16.64100
H         18.05000       -3.13100       17.36900
C         19.20300        1.72200       14.03200
C         18.90300        2.32700       12.82300
H         18.00200        2.57400       12.64900
C         19.86300        2.58800       11.86900
H         19.62800        3.03300       11.06500
C         21.16400        2.19700       12.09200
H         21.83300        2.37400       11.44100
C         21.48100        1.56900       13.21600
H         22.37700        1.28700       13.34800
C         20.52200        1.31300       14.21500
H         20.77400        0.86300       15.01200
C         14.19600        2.33000       15.63100
C         13.21400        2.31100       14.66000
H         13.45300        2.44900       13.75200
C         11.87800        2.09100       14.99100
H         11.21300        2.08900       14.31300
C         11.52400        1.87900       16.29300
H         10.61200        1.73200       16.51200
C         12.45900        1.87400       17.28200
H         12.20400        1.71200       18.18300
C         13.80700        2.11200       16.95600
H         14.46100        2.12300       17.64400
C         15.18800       -1.62100       10.38400
C         15.59000       -0.52300        9.66900
H         15.52000       -0.58800        8.72300
C         16.09400        0.68800       10.17500
C         14.58900       -2.81900        9.65900
H         14.35700       -3.51500       10.31000
H         15.24300       -3.17600        9.02200
H         13.78300       -2.54100        9.17900
C         16.50500        1.77700        9.20800
H         16.84400        2.54700        9.70800
H         15.73000        2.04800        8.67400
H         17.20800        1.44000        8.61500
Rh         3.33500        8.52100        4.25000
P          3.09100        7.17700        5.94400
P          3.65700        9.73000        6.03500
O          2.94500        7.20900        2.66500
O          3.59500       10.05400        2.89300
C          1.52200        6.26300        6.47100
H          1.11400        6.78600        7.21900
C          1.98100        4.93300        7.05500
H          1.87400        4.21800        6.38000
H          1.42100        4.70100        7.83900
C          3.44800        5.02500        7.48000
H          3.53500        5.55000        8.31500
H          3.82400        4.12000        7.63300
C          4.17200        5.71700        6.33900
H          4.11000        5.10100        5.55500
C          3.40700        8.40700        7.29900
H          2.62500        8.56200        7.88700
H          4.21600        8.20900        7.83500
C          5.25300       10.62900        6.51500
H          5.61200       10.18200        7.33400
C          4.79600       12.01300        6.92000
H          4.81100       12.61100        6.13300
H          5.41400       12.38000        7.59800
C          3.37600       11.94900        7.49400
H          3.37600       11.49300        8.37100
H          3.00800       12.86200        7.60900
C          2.55400       11.16900        6.49200
H          2.49400       11.74500        5.67400
C          0.47300        6.12300        5.40700
C          0.73100        5.41700        4.24600
H          1.60500        5.07400        4.09000
C         -0.26800        5.19600        3.30000
H         -0.08100        4.67300        2.53000
C         -1.53300        5.73700        3.47400
H         -2.21700        5.57700        2.83300
C         -1.78100        6.48700        4.56700
H         -2.63600        6.88800        4.66800
C         -0.79600        6.68800        5.55900
H         -0.99600        7.20400        6.33100
C          5.62900        6.02000        6.52400
C          6.48000        6.02000        5.43500
H          6.13100        5.83200        4.57400
C          7.85600        6.29300        5.57900
H          8.42500        6.28700        4.81700
C          8.36900        6.56700        6.82600
H          9.29400        6.75200        6.93700
C          7.51600        6.56600        7.91400
H          7.87000        6.74500        8.77800
C          6.16900        6.31400        7.78900
H          5.60500        6.33800        8.55600
C          6.33100       10.59300        5.47900
C          6.19600       11.29100        4.28100
H          5.39500       11.77200        4.11100
C          7.20700       11.30000        3.32800
H          7.11000       11.80200        2.52700
C          8.35700       10.57000        3.55700
H          9.05400       10.58700        2.91300
C          8.51400        9.82600        4.68900
H          9.30400        9.31600        4.82100
C          7.49700        9.82200        5.67000
H          7.59700        9.29900        6.45700
C          1.15700       10.79300        6.83600
C          0.20900       10.67800        5.85100
H          0.46100       10.84100        4.95000
C         -1.11000       10.33900        6.13000
H         -1.74900       10.27800        5.43000
C         -1.47500       10.08700        7.43100
H         -2.36800        9.82900        7.63000
C         -0.58700       10.21000        8.41600
H         -0.85800       10.04000        9.31100
C          0.73800       10.57600        8.15900
H          1.35200       10.67800        8.87600
C          2.87500        7.54300        1.43700
C          3.17900        8.79300        0.90200
H          3.14200        8.87100       -0.04500
C          3.53100        9.93400        1.60800
C          2.38300        6.44300        0.53500
H          2.21300        5.63500        1.06500
H          3.06200        6.24600       -0.14300
H          1.55300        6.72500        0.09700
C          3.83700       11.21200        0.87400
H          4.06300       11.91500        1.51800
H          3.05300       11.48300        0.35200
H          4.59500       11.06500        0.26800
N         11.03100        2.66600       11.48300
N          3.36100       -1.95300        2.33200
N          6.81300       11.13300       14.69900
N          3.77000       10.12000       10.69300
N         -2.13400        9.91100        2.42300
N          4.73800       -3.96400        8.69100
N          8.60900        6.68300        2.18200
N          8.22900       -1.19200       10.20500
N         15.07900       13.77900       10.26500
C         11.66200        1.75600       11.27700
C         12.48600        0.61800       11.03700
H         13.26800        0.88300       10.51200
H         11.97500       -0.05800       10.54700
H         12.78000        0.24100       11.89700
C          4.30300       -2.12300        2.92700
C          5.53800       -2.31600        3.65100
H          6.21600       -2.68700        3.04900
H          5.38700       -2.93800        4.39600
H          5.84900       -1.45700        4.00300
C          7.82600       10.86800       14.19800
C          9.01400       10.62700       13.51900
H          8.85700       10.69200       12.55100
H          9.33700        9.72700       13.73500
H          9.68500       11.28600       13.78700
C          2.93700       10.28200       11.43100
C          1.83500       10.50200       12.38800
H          1.52900       11.42900       12.32500
H          2.15100       10.31800       13.29600
H          1.09200        9.89700       12.17200
C         -1.12500        9.42500        2.40200
C          0.11900        8.85100        2.45700
H          0.65100        9.28900        3.15400
H          0.56500        8.95000        1.59100
H          0.02800        7.89700        2.67000
C          4.52200       -3.98400        9.82900
C          4.23300       -4.00800       11.28800
H          3.37100       -3.57000       11.45500
H          4.93900       -3.53200       11.77200
H          4.19100       -4.93800       11.59800
C          7.62600        7.25500        2.09500
C          6.39500        7.97800        2.06100
H          5.68200        7.42500        2.44300
H          6.17400        8.19900        1.13500
H          6.48400        8.80000        2.58300
C          7.18300       -0.95100       10.38600
C          5.75100       -0.72300       10.75900
H          5.29800       -1.58600       10.85300
H          5.31100       -0.19700       10.06300
H          5.70900       -0.23800       11.61200
C         15.03200       14.33300       11.25300
C         14.99900       15.05600       12.47100
H         15.90100       15.37200       12.68700
H         14.67800       14.46900       13.18800
H         14.39600       15.82400       12.38100
