161
C:\Users\Javier\OneDrive - Universitat de Barcelona\Tesi\4 - Contribucions\Treballs\3-PhD\chapter_1\cif\pcp\YILKIQ.pcp.pdb
Ru         8.73300        8.26600       15.57900
Cl        11.03500        7.66800       15.91000
P          9.40200       10.19500       16.60600
P          9.55900        9.71500       13.95800
O         10.27500       10.01000       18.01300
H         10.90600        9.23900       17.97400
C         10.33500       10.92600       15.17100
H         11.25700       10.63900       15.24700
C         10.27900       12.41300       14.94900
C          9.36900       13.16800       15.55300
H          9.38400       14.09800       15.35700
C          8.35300       12.70900       16.48300
H          7.69100       13.33800       16.73900
C          8.25600       11.48600       17.01700
H          7.55500       11.30200       17.63200
C         11.32300       13.00200       14.04700
H         12.21200       12.73900       14.36200
H         11.24800       13.97900       14.05700
H         11.18800       12.67200       13.13400
C         10.82900        9.06500       12.83600
C         11.88200        9.82400       12.33500
H         11.99500       10.72500       12.61700
C         12.76700        9.26800       11.42000
H         13.48800        9.78900       11.08700
C         12.61200        7.96400       10.98900
H         13.22100        7.59200       10.36400
C         11.56700        7.21400       11.47700
H         11.44700        6.31900       11.17800
C         10.69000        7.75800       12.40100
H          9.98200        7.22500       12.74300
C          8.46400       10.65500       12.84300
C          7.46100       11.44800       13.38600
H          7.34800       11.48200       14.32800
C          6.62100       12.19300       12.56800
H          5.94900       12.74300       12.95400
C          6.76600       12.13400       11.19200
H          6.20500       12.65700       10.62900
C          7.72400       11.31800       10.64300
H          7.80500       11.25700        9.69700
C          8.58300       10.57600       11.46200
H          9.24700       10.01800       11.07400
C          8.03300        6.20500       14.86300
C          7.17900        7.18900       14.32600
C          6.52300        8.13200       15.20200
C          6.75000        8.06900       16.60100
C          7.59700        7.05300       17.15100
C          8.23200        6.14100       16.28600
C          8.72000        5.16400       14.01200
H          8.52000        5.33100       13.06800
H          8.39800        4.27100       14.26300
H          9.68900        5.21100       14.15300
C          6.89500        7.24000       12.84200
H          6.94100        8.16900       12.53300
H          5.99900        6.88400       12.66800
H          7.56000        6.70100       12.36400
C          5.49900        9.08100       14.63900
H          5.43700        9.87600       15.21100
H          4.62600        8.63600       14.60200
H          5.76500        9.35100       13.73400
C          5.98700        8.97700       17.54100
H          6.54400        9.18300       18.32000
H          5.16700        8.52800       17.83600
H          5.75400        9.80800       17.07700
C          7.75800        6.90600       18.65500
H          8.69000        7.08300       18.90200
H          7.51600        5.99300       18.92200
H          7.17200        7.54700       19.11100
C          9.14900        5.08200       16.85700
H          9.75600        4.76600       16.15700
H          8.61400        4.33100       17.18900
H          9.67000        5.46600       17.59500
C          7.49300       15.30300       18.74500
H          6.74000       14.69700       18.53100
H          7.91700       15.56600       17.89000
Cl         8.65300       14.44200       19.70600
Cl         6.86500       16.72400       19.52300
Ru         0.02500       16.82600        5.98900
Cl         2.30900       16.10700        6.08600
P          0.84800       18.66900        7.08500
P          0.79100       18.33900        4.41900
O          1.82700       18.37900        8.39300
H          2.28700       17.50500        8.31800
C          1.70400       19.44700        5.63000
H          2.51500       19.07000        5.61400
C          1.74100       20.94200        5.51300
C          0.93500       21.71100        6.25600
H          1.00500       22.64900        6.13000
C         -0.03100       21.25300        7.22900
H         -0.61100       21.90700        7.59900
C         -0.18800       19.99600        7.66000
H         -0.87200       19.80700        8.29300
C          2.75500       21.54600        4.59200
H          3.64700       21.21900        4.82800
H          2.73100       22.52100        4.67400
H          2.54800       21.29000        3.66800
C         -0.38600       19.34700        3.46500
C         -0.51700       19.17700        2.08800
H          0.04200       18.56100        1.63200
C         -1.46300       19.90800        1.38200
H         -1.54700       19.78500        0.44400
C         -2.28000       20.80800        2.03200
H         -2.90900       21.32000        1.53800
C         -2.18300       20.96300        3.39800
H         -2.75700       21.57100        3.84900
C         -1.24600       20.22700        4.12200
H         -1.19300       20.32400        5.06600
C          1.96800       17.69700        3.17900
C          1.80600       16.39700        2.73600
H          1.09200       15.87300        3.07800
C          2.67300       15.84700        1.79900
H          2.54600       14.95600        1.49500
C          3.72100       16.60500        1.31500
H          4.32700       16.22800        0.68600
C          3.89000       17.90000        1.73900
H          4.61000       18.41800        1.39600
C          3.01600       18.46000        2.66500
H          3.13300       19.36200        2.94600
C         -1.15100       15.71300        7.59300
C         -0.53400       14.74800        6.76700
C         -0.71700       14.76800        5.33400
C         -1.55900       15.73800        4.75400
C         -2.18500       16.72100        5.57900
C         -1.97800       16.72300        6.98900
C         -0.95200       15.68800        9.09000
H         -0.06800       15.32300        9.29600
H         -1.64300       15.12800        9.50000
H         -1.02000       16.59900        9.44300
C          0.33100       13.68100        7.37800
H          1.14500       13.57400        6.84400
H         -0.16000       12.83300        7.39800
H          0.57200       13.94100        8.29300
C         -0.00700       13.70800        4.52100
H         -0.13500       13.88900        3.56700
H         -0.37600       12.82600        4.73900
H          0.95000       13.72000        4.73100
C         -1.85600       15.75700        3.26900
H         -1.58800       16.62200        2.89300
H         -2.81600       15.62200        3.12700
H         -1.35600       15.03800        2.82600
C         -3.17400       17.68800        4.96600
H         -3.19900       18.51200        5.49600
H         -4.06500       17.28000        4.95200
H         -2.89800       17.89800        4.04900
C         -2.75300       17.68100        7.85600
H         -2.31800       17.75600        8.73100
H         -3.66800       17.34800        7.97400
H         -2.77700       18.56100        7.43000
P          4.17200       12.69500       18.63700
F          4.29100       14.12700       17.98800
F          2.60200       12.84400       18.78400
F          4.38500       13.33400       20.09200
F          3.97300       12.00800       17.22000
F          5.73900       12.52200       18.51800
F          4.07000       11.24900       19.31100
P          3.91900       15.65900       11.19400
F          4.61400       14.56600       12.10600
F          2.69400       14.66800       11.02700
F          3.25200       16.24900       12.51800
F          4.58900       15.07200        9.88600
F          5.17400       16.58100       11.41000
F          3.23000       16.76200       10.36100
