156
C:\Users\Javier\OneDrive - Universitat de Barcelona\Tesi\4 - Contribucions\Treballs\3-PhD\chapter_1\cif\pcp\YILKOW.pcp.pdb
Ru        11.06100        1.59200        3.28100
Cl        12.03400        3.11800        4.93100
P          9.99600        0.69000        5.08400
P         12.27400       -0.19500        4.00100
Si         6.83500        0.99200        5.43300
O          9.93500        1.62600        6.41500
H         10.63500        2.24600        6.20400
C         11.20300       -0.67000        5.47500
C         10.67900       -2.07300        5.63200
C          9.38000       -2.37000        5.44600
H          9.15200       -3.27200        5.44300
C          8.29200       -1.41300        5.24900
H          7.43900       -1.77300        5.16700
C          8.38000       -0.05800        5.17000
C         11.65600       -3.13200        6.05800
H         12.36200       -3.19500        5.41000
H         11.20400       -3.97700        6.12200
H         12.02700       -2.90200        6.91300
C         12.48100       -1.69500        2.98700
C         11.35100       -2.45500        2.62900
H         10.50400       -2.17900        2.89600
C         11.49400       -3.62000        1.87700
H         10.74700       -4.12700        1.65700
C         12.75100       -4.02200        1.46000
H         12.84800       -4.81200        0.97900
C         13.87200       -3.24900        1.75600
H         14.70900       -3.50000        1.44100
C         13.73300       -2.10100        2.52800
H         14.48400       -1.59600        2.74100
C         13.96100        0.04800        4.64600
C         14.55700       -0.85600        5.52400
H         14.08000       -1.60200        5.80800
C         15.85500       -0.66000        5.97800
H         16.24300       -1.26900        6.56300
C         16.56800        0.45300        5.55400
H         17.43400        0.59500        5.86400
C         15.99200        1.36100        4.66500
H         16.47700        2.09800        4.37200
C         14.68700        1.15800        4.21700
H         14.29800        1.76600        3.63000
C          5.48200        0.35300        4.31500
H          5.79500        0.34600        3.40700
H          4.71400        0.92400        4.38400
H          5.24400       -0.53900        4.57900
C          6.31400        0.82800        7.22100
H          6.29800       -0.10000        7.46500
H          5.44100        1.20500        7.33500
H          6.94000        1.29500        7.78000
C          7.16500        2.80000        5.14400
H          7.33500        3.23100        5.98500
H          6.40000        3.20100        4.72700
H          7.93000        2.89700        4.57300
C         11.71400        1.74000        1.13100
C         11.57200        3.04600        1.64900
C         10.18600        3.25000        2.03600
C          9.49500        2.04300        1.76200
C         10.42100        1.08700        1.23600
C         12.92400        1.12300        0.51400
H         13.70900        1.58200        0.82200
H         12.86600        1.19400       -0.44200
H         12.97400        0.19800        0.76300
C         12.62900        4.10900        1.76200
H         12.74800        4.34600        2.68400
H         12.35600        4.88500        1.26600
H         13.45700        3.77800        1.40700
C          9.62800        4.54600        2.51900
H          8.70300        4.43100        2.74700
H          9.70800        5.20600        1.82600
H         10.11600        4.83500        3.29500
C          8.01500        1.80700        1.82000
H          7.84000        0.97500        2.26400
H          7.66100        1.77600        0.92800
H          7.59700        2.52100        2.30600
C         10.04100       -0.22000        0.60900
H         10.77600       -0.83300        0.67400
H          9.82200       -0.07900       -0.31500
H          9.27900       -0.58400        1.06600
H         11.73500       -0.48200        6.26200
Ru         5.11000        4.41800       11.56500
Cl         3.92400        3.04800        9.93800
P          6.32700        5.08000        9.73500
P          4.14000        6.28400       10.70800
Si         9.53200        4.64500        9.67200
O          6.37900        4.04400        8.48100
H          5.71800        3.48000        8.68500
C          5.22100        6.46900        9.18000
C          5.82700        7.79900        8.83000
C          7.14300        8.04300        9.00200
H          7.43100        8.91800        8.86800
C          8.15900        7.06000        9.38200
H          9.03000        7.38000        9.44600
C          7.99200        5.74100        9.64900
C          4.91700        8.83800        8.23700
H          5.41800        9.63600        8.05500
H          4.21300        9.03600        8.85800
H          4.54000        8.50300        7.42100
C          2.40200        6.22100       10.16600
C          1.54300        5.37200       10.86600
H          1.87500        4.87100       11.57600
C          0.20500        5.26500       10.52300
H         -0.35800        4.71700       11.02100
C         -0.29800        5.97200        9.43900
H         -1.19100        5.88600        9.19500
C          0.54600        6.80800        8.72500
H          0.21800        7.28800        7.99900
C          1.88700        6.92800        9.09000
H          2.44300        7.49400        8.60500
C          4.27700        7.87200       11.59000
C          3.18500        8.65000       11.93500
H          2.32700        8.36600       11.71400
C          3.36600        9.86200       12.61500
H          2.63000       10.38200       12.84100
C          4.64900       10.28400       12.94900
H          4.76800       11.09100       13.39600
C          5.74700        9.51400       12.61900
H          6.60200        9.79600       12.85300
C          5.57200        8.31000       11.93900
H          6.31200        7.79400       11.71400
C         10.59100        5.12900       11.14100
H         10.81100        6.06100       11.08200
H         11.39700        4.60900       11.13900
H         10.10500        4.96600       11.95200
C          9.12200        2.82500        9.65300
H          8.28100        2.68000       10.09300
H          9.81000        2.33700       10.11100
H          9.06500        2.51800        8.74500
C         10.51100        5.01200        8.14400
H          9.96000        4.87400        7.37000
H         11.27300        4.43100        8.10400
H         10.80600        5.92700        8.16600
C          4.78300        4.79200       13.73000
C          6.18600        4.71300       13.45100
C          6.47900        3.37200       13.01600
C          5.26800        2.66000       12.96800
C          4.19900        3.54000       13.40900
C          4.07000        5.94300       14.36900
H          4.51000        6.76200       14.13200
H          4.08400        5.83600       15.32300
H          3.16100        5.96500       14.06300
C          7.21600        5.74300       13.81500
H          7.94600        5.70000       13.19200
H          7.54100        5.57300       14.70100
H          6.82100        6.61800       13.78100
C          7.83100        2.77500       12.81500
H          7.77100        2.04600       12.19300
H          8.16700        2.45100       13.65400
H          8.42700        3.44200       12.47000
C          5.07200        1.22200       12.59300
H          4.26000        1.13100       12.08900
H          5.01600        0.68800       13.38900
H          5.81400        0.92500       12.06200
C          2.78100        3.11300       13.61500
H          2.21900        3.88900       13.68900
H          2.71500        2.59400       14.42100
H          2.49400        2.58100       12.86900
H          4.69100        6.11500        8.39300
