180
C:\Users\Javier\OneDrive - Universitat de Barcelona\Tesi\4 - Contribucions\Treballs\3-PhD\chapter_1\cif\pcp\YOFHAD.pcp.pdb
Pd         8.91300        3.85300       12.89200
Ga        10.34200        4.68500       14.62700
P         10.09300        1.93900       12.09000
N         11.99100        5.63000       14.50400
C         12.48300        5.83100       15.79000
H         13.30300        6.28800       15.94300
Ga         7.55900        5.64600       13.74500
P          7.79400        3.05800       10.93200
N         10.58300        4.66000       16.50000
C         11.75400        5.35200       16.80100
H         12.02800        5.47900       17.70300
N          7.33100        7.51100       14.02300
C         12.95800        5.77100       13.45100
N          5.85000        5.39000       14.56300
C         12.82400        6.81700       12.50800
C         13.79200        6.96800       11.52400
H         13.70300        7.66200       10.88300
C         14.88600        6.12100       11.46500
H         15.54600        6.23500       10.79000
C         15.01400        5.11300       12.38800
H         15.77000        4.54100       12.34400
C         14.06700        4.90100       13.38700
C         11.67500        7.79500       12.51300
H         11.17700        7.67600       13.37300
C         12.13900        9.23600       12.44100
H         12.76700        9.41500       13.17300
H         11.36500        9.83100       12.52300
H         12.58400        9.39200       11.58300
C         10.71200        7.48500       11.36400
H         10.41600        6.55300       11.42900
H         11.16800        7.62400       10.50800
H          9.93400        8.07900       11.41900
C         14.24600        3.74700       14.34200
H         13.42200        3.68400       14.90800
C         15.43700        3.92600       15.26400
H         16.26200        3.92200       14.73600
H         15.46000        3.18900       15.91200
H         15.35600        4.77700       15.74100
C         14.39300        2.42300       13.56600
H         15.21600        2.44500       13.03600
H         13.62200        2.30600       12.96900
H         14.43100        1.67400       14.19900
C          9.99400        3.98600       17.61900
C         10.25900        2.61600       17.85900
C          9.77000        2.02200       19.00800
H          9.93300        1.10100       19.17200
C          9.04200        2.76700       19.92300
H          8.72400        2.35400       20.71800
C          8.77500        4.08900       19.69900
H          8.28200        4.58200       20.34300
C          9.20900        4.72000       18.54100
C         11.18300        1.82700       16.92700
H         11.04600        2.15900       15.99400
C         12.64800        2.06400       17.31000
H         12.81100        1.71200       18.21000
H         12.83800        3.02400       17.29300
H         13.23100        1.60600       16.66900
C         10.90600        0.32400       16.94200
H         11.46800       -0.11900       16.27300
H          9.96200        0.16300       16.73400
H         11.11200       -0.03800       17.83000
C          8.84400        6.16500       18.30700
H          9.33600        6.47700       17.49300
C          7.35900        6.33600       18.05000
H          7.10200        5.82700       17.25300
H          7.15800        7.28600       17.90800
H          6.85300        6.00800       18.82300
C          9.25400        7.05400       19.47400
H          9.06000        7.99000       19.25400
H         10.21300        6.95200       19.64500
H          8.74900        6.79700       20.27400
C          6.10000        7.71000       14.67700
H          5.81300        8.58200       14.92500
C          5.34800        6.63800       14.94000
H          4.50400        6.72200       15.36900
C          7.92500        8.70600       13.52000
C          7.62100        9.16100       12.21800
C          8.13600       10.38600       11.81400
H          7.92400       10.71200       10.94600
C          8.94700       11.14100       12.63500
H          9.30200       11.96600       12.32700
C          9.24100       10.69000       13.91100
H          9.78500       11.21900       14.48100
C          8.74900        9.47500       14.36600
C          6.71200        8.39000       11.29300
H          6.75200        7.42900       11.56200
C          7.09200        8.47500        9.81800
H          6.58400        7.80700        9.31100
H          8.05000        8.30000        9.71700
H          6.88300        9.37000        9.47800
C          5.24900        8.86100       11.46100
H          4.98200        8.77300       12.39900
H          4.66200        8.31000       10.90100
H          5.17400        9.79900       11.18700
C          9.04000        9.05000       15.79800
H          8.72300        8.10900       15.90300
C         10.52200        9.07500       16.15500
H         11.02200        8.52500       15.51400
H         10.64600        8.71800       17.05800
H         10.85200        9.99800       16.11800
C          8.23900        9.91600       16.77000
H          8.48600       10.85700       16.64800
H          8.43700        9.64200       17.68900
H          7.28200        9.80500       16.59300
C          4.91400        4.32000       14.48300
C          3.73400        4.46100       13.71300
C          2.78800        3.46900       13.74700
H          1.98200        3.58000       13.25700
C          2.97900        2.31400       14.47500
H          2.31000        1.64000       14.49200
C          4.15200        2.14700       15.17700
H          4.29200        1.33800       15.65500
C          5.13900        3.12500       15.20900
C          3.49600        5.66600       12.78600
H          4.29800        6.26000       12.85700
C          2.27600        6.49100       13.23000
H          1.46900        5.93800       13.17100
H          2.18000        7.27200       12.64900
H          2.40100        6.78500       14.15700
C          3.36900        5.24600       11.31800
H          4.17100        4.75100       11.04700
H          3.27100        6.04200       10.75600
H          2.58200        4.67200       11.20900
C          6.38200        2.88300       16.03600
H          6.90100        3.73800       16.03800
C          6.05700        2.55900       17.48500
H          5.48500        3.26400       17.85900
H          6.88900        2.50700       18.00400
H          5.59000        1.70000       17.53100
C          7.26500        1.83300       15.42100
H          6.78600        0.97800       15.39400
H          8.07900        1.73400       15.95600
H          7.50400        2.10100       14.50900
C          8.63700        1.43500       11.08000
H          8.90700        1.07800       10.19500
H          8.07500        0.76900       11.54900
C         10.59800        0.36600       12.89300
C          9.64400       -0.36800       13.57700
H          8.75100       -0.04600       13.63800
C          9.99000       -1.56700       14.17600
H          9.33200       -2.07200       14.63900
C         11.27400       -2.03200       14.10500
H         11.50400       -2.86300       14.50200
C         12.23400       -1.29000       13.45500
H         13.13000       -1.60200       13.42700
C         11.90400       -0.09700       12.84700
H         12.57300        0.40600       12.39900
C         11.35700        2.31200       10.84000
C         11.81300        3.61200       10.74800
H         11.52300        4.26200       11.37700
C         12.69500        3.97200        9.73800
H         13.00400        4.86900        9.67900
C         13.12400        3.03400        8.82100
H         13.73100        3.28000        8.13300
C         12.67100        1.75500        8.91400
H         12.96900        1.11100        8.28100
C         11.78900        1.36600        9.90900
H         11.48300        0.46900        9.95500
C          6.09100        2.55100       10.53500
C          5.32700        2.02400       11.55600
H          5.65600        2.05000       12.44900
C          4.09200        1.46300       11.30500
H          3.57900        1.10100       12.01800
C          3.60100        1.43100       10.01400
H          2.75600        1.03600        9.83700
C          4.33400        1.96200        8.99600
H          3.99200        1.94400        8.11000
C          5.58200        2.53300        9.24400
H          6.08300        2.90900        8.52900
C          8.49900        3.81700        9.44600
C          8.73500        5.18500        9.44800
H          8.43800        5.70400       10.18600
C          9.38500        5.80700        8.41300
H          9.52100        6.74700        8.43600
C          9.83800        5.07900        7.34500
H         10.31200        5.50500        6.64200
C          9.59900        3.72000        7.30300
H          9.89300        3.21300        6.55400
C          8.93400        3.08700        8.33700
H          8.77500        2.15100        8.29500
