83
C:\Users\Javier\OneDrive - Universitat de Barcelona\Tesi\4 - Contribucions\Treballs\3-PhD\chapter_1\cif\pcp\YUFPOH.pcp.pdb
Sn         0.23500        1.13300        5.66800
Cl        -0.98800       -0.04100        3.93200
Cl        -1.00700        3.27400        5.45000
Cl        -1.18600        0.24200        7.51800
Sn        -0.76600        0.77300        5.13200
Cl        -3.20700        0.59100        4.89600
Cl        -0.85200        0.28700        7.51700
Cl        -0.92000        3.15000        5.40300
Ru         3.61200        5.68100        6.51800
Cl         5.00900        5.45200        8.44300
P          5.63600        5.77300        5.41700
P          4.36500        3.51300        6.14000
C          1.42900        5.48700        7.10900
H          1.11300        4.65900        7.52800
C          2.20400        6.63500        5.03600
C          2.75900        7.65400        5.86800
H          3.35600        8.32100        5.47000
C          2.22600        6.76300        3.53400
H          2.07700        5.90100        3.13800
H          3.08100        7.10000        3.25400
H          1.53600        7.36800        3.25400
C          1.98100        6.50000        7.90700
C          2.66100        7.57900        7.25600
H          3.19700        8.19500        7.79800
C          1.59300        5.54100        5.68800
H          1.35800        4.75000        5.15900
C          1.88300        6.52500        9.40900
H          2.73800        6.86600        9.74700
C          1.65900        5.17100       10.04900
H          0.80400        4.82800        9.77900
H          1.67900        5.26400       11.00400
H          2.35000        4.56800        9.76900
C          6.08400        4.00300        5.67700
H          6.72100        3.87500        6.39700
H          6.39700        3.56900        4.86800
C          5.69600        6.09900        3.62700
C          5.49700        5.10300        2.68100
H          5.38500        4.22100        2.95300
C          5.86300        7.41600        3.21500
H          5.99000        8.09100        3.84200
C          5.46300        5.42000        1.33500
H          5.31600        4.75200        0.70600
C          6.93800        6.86300        6.06800
C          6.58700        7.94200        6.87800
H          5.69600        8.08500        7.09900
C          8.26200        6.67200        5.72100
H          8.50300        5.95100        5.18500
C          3.69000        2.45800        4.80600
C          2.55100        2.20600        2.69100
H          2.14600        2.58900        1.94700
C          2.66700        0.82400        2.78800
H          2.31600        0.27600        2.12500
C          3.04200        3.00900        3.70700
H          2.93700        3.93200        3.65200
C          3.83700        1.07300        4.87600
H          4.28900        0.68300        5.58900
C          3.30000        0.27900        3.86400
H          3.37600       -0.64700        3.92600
C          4.43400        2.37800        7.54900
C          9.23800        7.55800        6.17400
H         10.12600        7.43600        5.92800
C          7.56800        8.80300        7.35000
H          7.33800        9.50600        7.91500
C          8.88900        8.61300        6.98100
H          9.54400        9.20200        7.28100
C          3.25600        2.11200        8.22200
H          2.46300        2.51900        7.95700
C          5.60500        1.74200        7.95200
H          6.39700        1.90600        7.49300
C          5.84000        7.71400        1.85300
H          5.95700        8.59300        1.57000
C          0.79500        7.54300        9.80800
H          1.02300        8.40800        9.46000
H          0.73600        7.59000       10.76500
H         -0.05000        7.26500        9.44700
C          5.64600        6.71900        0.92700
H          5.63900        6.92500        0.02100
C          4.45500        0.61600        9.68500
H          4.46000        0.02100       10.40200
C          5.60800        0.87900        9.01700
H          6.40100        0.47200        9.28200
C          3.27000        1.22500        9.30700
H          2.48600        1.04800        9.77100
