150
C:\Users\Javier\OneDrive - Universitat de Barcelona\Tesi\4 - Contribucions\Treballs\3-PhD\chapter_1\cif\pcp\YUQHEZ.pcp.pdb
Pd         4.36700       13.98900        4.82900
P          6.21500       13.96800        6.15700
P          3.63900       14.33000        6.95300
S          2.32500       14.09000        3.80000
S          5.34800       13.48500        2.80900
C          7.08800       12.39900        6.35000
C          8.42300       12.30100        6.61500
H          8.95500       13.08500        6.66800
C          9.00700       11.04400        6.81100
H          9.93600       10.98500        7.00200
C          8.26500        9.90300        6.73200
H          8.67300        9.05000        6.84200
C          6.96400       10.00100        6.49600
H          6.43700        9.21200        6.47200
C          6.35100       11.23700        6.28400
H          5.42200       11.27700        6.09300
C          7.43400       15.29500        5.99500
C          7.60900       15.90400        4.76300
H          7.09200       15.62400        4.01600
C          8.53600       16.91400        4.62000
H          8.64900       17.32900        3.77400
C          9.29100       17.32700        5.68200
H          9.94200       18.01100        5.57000
C          9.10000       16.74500        6.91900
H          9.61400       17.04300        7.65900
C          8.17200       15.73200        7.09800
H          8.04100       15.34200        7.95500
C          2.82000       15.88700        7.37900
C          1.55000       16.11300        6.87600
H          1.10300       15.42200        6.39800
C          0.92500       17.33600        7.05900
H          0.06100       17.48200        6.69700
C          1.55100       18.33700        7.76600
H          1.12000       19.17300        7.89700
C          2.80000       18.11900        8.27200
H          3.23600       18.80700        8.75900
C          3.44000       16.90900        8.09100
H          4.30800       16.77500        8.45100
C          2.70200       12.96300        7.67700
C          2.64400       12.82000        9.06000
H          3.00400       13.49600        9.62100
C          2.06600       11.70200        9.62100
H          2.04700       11.60100       10.56700
C          1.51700       10.72900        8.81900
H          1.14000        9.94700        9.20600
C          1.51800       10.88900        7.44600
H          1.10000       10.24100        6.89200
C          2.12800       11.99800        6.87600
H          2.15000       12.09200        5.93000
C          5.30500       14.25500        7.74300
H          5.39500       13.49900        8.37700
H          5.56000       15.10300        8.18400
C          2.68300       13.68200        2.13200
C          1.62600       13.60400        1.21800
H          0.73700       13.74500        1.52100
C          1.84600       13.32900       -0.11500
O          0.86800       13.24800       -1.07200
C          3.16400       13.12000       -0.57100
O          3.29500       12.90900       -1.92100
C          4.20700       13.16000        0.33200
H          5.09300       12.99400        0.03100
C          3.98200       13.44200        1.68600
C         -0.46800       13.49600       -0.65700
H         -0.72900       12.83400        0.01700
H         -1.06900       13.43000       -1.42800
H         -0.52900       14.39600       -0.27200
C          4.60200       13.00100       -2.47100
H          5.03400       13.82000       -2.14900
H          4.54400       13.02400       -3.44700
H          5.12900       12.22300       -2.19200
Pd         5.11000       16.66500       11.67000
P          3.14900       17.55000       12.43800
P          5.41300       18.91800       11.79600
C          1.53800       17.38100       11.61900
C          1.21600       16.17600       10.99600
H          1.86100       15.48100       10.93900
C         -0.04900       15.99500       10.45700
H         -0.26800       15.17100       10.03700
C         -0.98600       16.99400       10.52600
H         -1.85600       16.85300       10.17000
C         -0.66900       18.19900       11.11300
H         -1.31500       18.89400       11.14700
C          0.59600       18.39600       11.66000
H          0.81400       19.23000       12.06100
C          2.80700       17.23600       14.20000
C          3.51100       16.21800       14.85000
H          4.17700       15.72500       14.38400
C          3.23300       15.93400       16.17200
H          3.71600       15.25100       16.62100
C          2.25600       16.64400       16.84100
H          2.06100       16.43000       17.74500
C          1.55400       17.65600       16.21300
H          0.88400       18.14000       16.68300
C          1.84100       17.96100       14.88500
H          1.37600       18.66600       14.44800
C          6.48200       19.62900       13.07600
C          6.21200       20.88100       13.63700
H          5.45300       21.37400       13.34800
C          7.04100       21.40700       14.61300
H          6.85600       22.25700       14.99300
C          8.14000       20.67900       15.03300
H          8.70800       21.03400       15.70700
C          8.42400       19.44300       14.48400
H          9.18800       18.96000       14.77500
C          7.59700       18.91300       13.50800
H          7.79100       18.06000       13.13300
C          5.77500       19.80700       10.25300
C          6.37600       19.12900        9.21100
H          6.60400       18.21300        9.31800
C          6.65200       19.76800        8.00200
H          7.05600       19.29300        7.28600
C          6.32700       21.10400        7.86600
H          6.51200       21.54800        7.04500
C          5.74200       21.79900        8.89800
H          5.52700       22.71800        8.79300
C          5.46400       21.15800       10.09100
H          5.06200       21.63900       10.80500
C          3.67700       19.31000       12.25900
H          3.18800       19.78400       11.54100
H          3.61300       19.81700       13.10700
C          5.92000       13.62000       11.06600
S          4.47900       14.46700       11.63600
O          6.98900       10.18800       10.18300
C          5.84400       12.24600       10.80900
H          5.01100       11.79800       10.89100
O          9.28700       11.39300       10.08200
C          6.97100       11.53500       10.43800
C          8.21100       12.19500       10.34500
C          8.28500       13.56500       10.52600
C          7.11800       14.28400       10.86300
S          7.22000       16.05200       10.99100
C          5.72000        9.56000       10.00600
H          5.23800        9.55000       10.85800
H          5.85100        8.63900        9.69500
H          5.19900       10.05800        9.34200
C         10.56900       12.01200       10.04600
H         10.62200       12.60800        9.27000
H         11.26100       11.32400        9.97700
H         10.70300       12.53100       10.86700
C          1.17000       13.50600       -4.08000
H          1.29200       13.77800       -3.13700
H          2.04100       13.17200       -4.41200
Cl         0.72400       14.87800       -4.99500
Cl         0.01100       12.20000       -4.14100
C          9.54500        8.13400        9.89300
H          9.82900        7.88500       10.80800
H          9.16400        9.04800        9.92900
Cl         8.31100        7.01100        9.34300
Cl        10.94400        8.12600        8.82200
H          7.15400       15.23000       10.95100
