69
C:\Users\Javier\OneDrive - Universitat de Barcelona\Tesi\4 - Contribucions\Treballs\3-PhD\chapter_1\cif\pcp\ZUZLAH.pcp.pdb
Ru         9.36000       -1.50300        8.63400
Cl         8.41900       -1.94500       10.83100
P          7.70700       -2.64400        7.57100
P          7.67200       -0.03400        8.18000
C          8.06500       -3.25000        5.88900
C          8.89200       -4.36600        5.79000
C          9.26200       -4.85700        4.55200
C          8.81900       -4.24200        3.40100
C          8.01400       -3.16000        3.49700
C          7.62100       -2.65800        4.72900
C          6.78700       -4.06700        8.24300
C          5.57600       -4.44700        7.69400
C          4.87300       -5.52000        8.21500
C          5.39600       -6.22900        9.26300
C          6.60300       -5.87900        9.79500
C          7.29900       -4.78700        9.31100
C          7.86800        1.24900        6.88400
C          7.37200        2.53900        7.02200
C          7.55900        3.47700        6.01300
C          8.22800        3.15000        4.87800
C          8.71700        1.87900        4.72200
C          8.54500        0.92900        5.71800
C          6.80300        0.85100        9.50800
C          7.57200        1.36000       10.53400
C          6.98400        2.09400       11.56300
C          5.62700        2.29000       11.55800
C          4.84700        1.76800       10.56300
C          5.43500        1.05500        9.53000
C         11.03400       -0.47000        7.74000
C         10.94800       -1.73200        7.20400
C         11.19200       -2.66900        8.21000
C         11.40700       -1.97100        9.35700
C         11.33300       -0.57800        9.10100
C          6.48100       -1.26300        7.47700
C         11.56500       -1.69700        2.17100
Cl        13.12600       -1.37900        1.54100
Cl        10.49400       -0.41300        1.84500
Cl        11.79200       -1.97800        3.81000
Cl        12.37300       -0.81900        0.96700
Cl        10.51100       -0.54400        2.86900
Cl        12.42000       -2.44700        3.30200
H          9.20700       -4.79300        6.58700
H          9.82900       -5.61600        4.48600
H          9.06800       -4.57500        2.56000
H          7.71100       -2.73400        2.71300
H          7.04500       -1.91000        4.77000
H          5.22400       -3.96900        6.95900
H          4.02900       -5.76500        7.85600
H          4.92300       -6.96600        9.62800
H          6.97300       -6.39400       10.50400
H          8.12800       -4.53000        9.71600
H          6.90600        2.77900        7.81200
H          7.21400        4.35800        6.12700
H          8.35700        3.79700        4.20100
H          9.17400        1.64700        3.91700
H          8.89100        0.05700        5.60200
H          8.51400        1.21200       10.54800
H          7.52300        2.45900       12.25400
H          5.22100        2.79100       12.25400
H          3.90800        1.89900       10.56900
H          4.89000        0.69800        8.84100
H         10.91200        0.34300        7.26500
H         10.75400       -1.93300        6.30200
H         11.20900       -3.61400        8.11900
H         11.57900       -2.35600       10.19700
H         11.45700        0.12600        9.71600
H          5.71400       -1.39500        8.03100
H          6.21300       -1.06400        6.58700
H         11.03700       -2.31100        1.79400
