131
C:\Users\Javier\OneDrive - Universitat de Barcelona\Tesi\4 - Contribucions\Treballs\3-PhD\chapter_1\cif\pop\KAQCUB.pop.pdb
Ru         4.57700        4.04500        4.79600
P          5.83100        5.13000        3.27400
P          3.36500        5.48700        3.57700
O          4.61800        6.09900        2.64900
N          2.70500        2.07900        3.79600
H          2.19100        2.54600        4.30200
C          4.74700        2.68200        6.57200
H          4.67500        1.70400        6.56000
C          3.71000        3.57900        6.79700
H          2.77700        3.34700        6.98100
C          4.25600        4.84200        6.84200
H          3.76100        5.66000        7.05600
C          5.59900        4.76800        6.64800
H          6.23100        5.51500        6.70300
C          5.93100        3.42500        6.46800
H          6.83600        3.06100        6.37400
C          7.06000        6.33200        3.86400
C          8.33400        5.90800        4.21000
H          8.55100        5.00600        4.14200
C          9.28700        6.80700        4.65500
H         10.13900        6.51000        4.87900
C          8.97600        8.13200        4.76600
H          9.61900        8.73900        5.05300
C          7.71500        8.56300        4.45100
H          7.49600        9.46100        4.54400
C          6.76000        7.66100        3.99500
H          5.91000        7.96500        3.77500
C          6.64000        4.52400        1.75800
C          7.59400        3.52200        1.86400
H          7.79600        3.16100        2.69700
C          8.24600        3.05600        0.72800
H          8.88700        2.38500        0.80500
C          7.95400        3.57800       -0.49600
H          8.38900        3.25800       -1.25200
C          7.02200        4.57100       -0.61500
H          6.83200        4.92900       -1.45300
C          6.35500        5.05500        0.51400
H          5.72100        5.73000        0.42900
C          2.59300        6.95400        4.30000
C          1.67400        6.80200        5.33400
H          1.52700        5.96200        5.70700
C          0.97700        7.90400        5.81000
H          0.35000        7.79800        6.48900
C          1.21000        9.14900        5.28000
H          0.74200        9.88500        5.60400
C          2.13000        9.31200        4.27600
H          2.29200       10.16000        3.92900
C          2.81900        8.22000        3.77600
H          3.43500        8.33400        3.08800
C          2.16100        5.03300        2.28600
C          0.80100        5.08500        2.53800
H          0.49500        5.35000        3.37500
C         -0.10700        4.74200        1.54600
H         -1.02000        4.78100        1.72200
C          0.32800        4.34500        0.31300
H         -0.28500        4.11900       -0.34900
C          1.66300        4.28500        0.05700
H          1.96000        4.02400       -0.78400
C          2.58300        4.61400        1.04400
H          3.49300        4.55000        0.86400
C          2.16700        0.95200        3.20300
C          1.78300       -0.08200        4.05100
H          1.95900       -0.02700        4.96200
C          1.13600       -1.19700        3.53500
H          0.87800       -1.88900        4.10000
C          0.87100       -1.28000        2.17200
H          0.43800       -2.02700        1.82700
C          1.25600       -0.24700        1.32500
H          1.07800       -0.30300        0.41500
C          1.90300        0.86900        1.84100
H          2.16000        1.56100        1.27500
C          1.87700        0.97900        3.22400
C          2.08400       -0.33600        3.62600
H          2.74100       -0.53100        4.25600
C          1.31100       -1.35800        3.08900
H          1.44900       -2.23700        3.35800
C          0.33000       -1.06500        2.14900
H         -0.18800       -1.74900        1.78900
C          0.12100        0.24800        1.74700
H         -0.53500        0.44400        1.11700
C          0.89600        1.27100        2.28400
H          0.75600        2.15000        2.01600
C          3.94300        2.49100        3.64200
C          4.84300        1.56500        2.84900
H          5.36800        2.09400        2.22800
H          4.29100        0.96000        2.32900
C          5.78600        0.74600        3.71900
H          5.26100        0.15000        4.27900
H          6.27500        1.34400        4.30400
C          6.78600       -0.08700        2.90800
H          7.30100        0.51700        2.35000
H          7.40300       -0.50900        3.52700
C          6.20800       -1.13200        2.04600
H          5.60600       -0.71500        1.41100
H          5.68400       -1.73500        2.59600
C          7.24700       -1.94900        1.27600
H          6.83100       -2.73100        0.90800
H          7.95200       -2.21200        1.87100
H          7.61100       -1.41600        0.56500
C          4.68300        1.76500        2.55000
H          4.05300        1.36500        1.92800
H          5.24500        2.38300        2.05800
C          5.52000        0.70400        3.18900
H          4.97500        0.15500        3.77300
H          6.22500        1.11000        3.71800
C          6.12300       -0.14900        2.07200
H          5.41900       -0.66700        1.65200
H          6.50800        0.43400        1.39900
C          7.16000       -1.05900        2.57200
H          6.76500       -1.67800        3.20600
H          7.83900       -0.54700        3.03900
C          7.81100       -1.83800        1.44200
H          7.25100       -2.58700        1.20700
H          8.66800       -2.16400        1.72700
H          7.91900       -1.27100        0.67900
S         -0.44400        2.95800        6.23200
C         -1.53300        1.96600        5.17000
O          0.82700        2.52200        5.85300
O         -0.78800        2.53800        7.56500
O         -0.77200        4.26200        5.95500
F         -2.76900        2.21200        5.45500
F         -1.32000        2.23100        3.92900
F         -1.35200        0.68000        5.39200
S         -0.29200        3.05500        6.26000
C         -1.53600        1.90600        5.73200
O          0.47500        3.35100        5.09900
O          0.40800        2.39700        7.26200
O         -1.01900        4.19900        6.63800
F         -2.30200        1.57400        6.70900
F         -2.28800        2.38100        4.76300
F         -0.99200        0.81300        5.24700
