191
C:\Users\Javier\OneDrive - Universitat de Barcelona\Tesi\4 - Contribucions\Treballs\3-PhD\chapter_1\cif\psp\YIVPUQ.psp.pdb
Ru        22.77300        8.50000       10.46000
Cl        23.02200        6.10500       10.63500
S         25.92300        8.52800        9.15600
P         23.91000        8.43300        8.47700
P         24.96000        8.69400       11.06500
C         23.81700        9.74700        7.19700
C         22.84600        9.64200        6.22800
H         22.26600        8.89100        6.22500
C         22.70500       10.61700        5.25400
H         22.01800       10.54400        4.60400
C         23.56800       11.69500        5.23500
H         23.48300       12.35800        4.56000
C         24.54300       11.80800        6.18100
H         25.14000       12.54500        6.16400
C         24.66100       10.83900        7.17300
H         25.33200       10.92900        7.84100
C         23.85100        6.96400        7.40000
C         24.90400        6.63200        6.55800
H         25.69700        7.15300        6.56200
C         24.79700        5.53400        5.71100
H         25.53000        5.29100        5.15800
C         23.63900        4.80200        5.66800
H         23.56000        4.07000        5.06700
C         22.58500        5.13200        6.50400
H         21.78400        4.62000        6.48500
C         22.69300        6.20400        7.36600
H         21.96800        6.42300        7.94100
C         25.58100       10.24400       11.79700
C         25.47500       11.44200       11.09500
H         25.16000       11.43700       10.19900
C         25.82000       12.64100       11.69700
H         25.75700       13.44900       11.20300
C         26.25500       12.67300       13.00800
H         26.47900       13.49800       13.41900
C         26.35900       11.48500       13.71600
H         26.66200       11.49900       14.61700
C         26.02300       10.27700       13.11600
H         26.09700        9.46900       13.61000
C         25.86200        7.45000       12.04600
C         25.19000        6.73400       13.02500
H         24.25900        6.87200       13.15300
C         25.87100        5.81700       13.82100
H         25.40600        5.33200       14.49100
C         27.21700        5.61300       13.63400
H         27.67800        4.98200       14.17200
C         27.89700        6.32200       12.66900
H         28.82900        6.18400       12.54700
C         27.21800        7.23600       11.87300
H         27.69000        7.71900       11.20300
C         20.58500        8.30900       10.79500
C         21.22000        8.67200       12.01600
C         21.81700        9.94600       11.84200
C         21.60600       10.36900       10.48400
C         20.80700        9.36000        9.85200
C         19.79200        7.05800       10.53800
H         19.16300        6.91100       11.27600
H         20.40000        6.29400       10.47100
H         19.29300        7.15300        9.69900
C         21.12300        7.92000       13.31000
H         20.29800        8.17900       13.77600
H         21.89500        8.13600       13.87100
H         21.10700        6.95900       13.12800
C         22.44400       10.78300       12.90700
H         21.76300       11.36800       13.30200
H         23.15900       11.32700       12.51700
H         22.81900       10.20100       13.60100
C         21.94100       11.71100        9.91100
H         21.15200       12.29100        9.95400
H         22.21900       11.60700        8.97600
H         22.67100       12.11400       10.42400
C         20.18300        9.49400        8.51600
H         19.30300        9.91500        8.60800
H         20.08100        8.60600        8.11300
H         20.75200       10.04900        7.94400
Ru        14.35600        8.69200       12.06200
Cl        14.19900        6.28700       12.33400
S         12.26900        8.45300        9.38100
P         12.14600        8.74000       11.50100
P         14.35800        8.45600        9.78700
C         11.14200       10.25100       11.74000
C         10.10100       10.26500       12.66200
H          9.85100        9.46200       13.10700
C          9.41900       11.44900       12.93500
H          8.70800       11.45100       13.56500
C          9.77300       12.62100       12.29400
H          9.30600       13.42900       12.47600
C         10.81500       12.60700       11.38500
H         11.06300       13.41300       10.94700
C         11.50300       11.43900       11.10200
H         12.21800       11.44600       10.47800
C         10.92700        7.47100       11.98500
C          9.82000        7.22000       11.17300
H          9.72500        7.67600       10.34500
C          8.86300        6.31200       11.57100
H          8.09800        6.15800       11.02800
C          9.00900        5.62000       12.76900
H          8.35800        4.98000       13.03200
C         10.10300        5.86300       13.57400
H         10.19900        5.39800       14.39700
C         11.07300        6.79100       13.18100
H         11.83000        6.95500       13.73400
C         14.99700        9.73400        8.62800
C         14.23200       10.83600        8.25100
H         13.34600       10.92600        8.58000
C         14.75000       11.80500        7.40000
H         14.21300       12.54200        7.13600
C         16.05200       11.69300        6.94000
H         16.42000       12.37000        6.38500
C         16.81500       10.59900        7.28500
H         17.69700       10.51000        6.94800
C         16.28900        9.62100        8.13300
H         16.82000        8.87200        8.37400
C         15.02200        6.94600        8.99700
C         16.03700        6.26600        9.63900
H         16.33300        6.55400       10.49300
C         16.63100        5.15200        9.03700
H         17.34700        4.69900        9.46600
C         16.16200        4.71300        7.80900
H         16.53800        3.94100        7.40900
C         15.15200        5.39200        7.16900
H         14.84600        5.09200        6.32000
C         14.57500        6.51100        7.75100
H         13.88100        6.97800        7.30300
C         14.95200        9.04800       14.16300
C         16.13900        8.73400       13.41000
C         16.31200        9.72000       12.39700
C         15.21900       10.66600       12.51200
C         14.41300       10.25400       13.62000
C         14.48200        8.30400       15.37100
H         15.16000        8.36200       16.07600
H         14.33300        7.36400       15.13600
H         13.64300        8.69700       15.69000
C         17.06400        7.59900       13.69100
H         17.47600        7.72200       14.57000
H         17.76200        7.56900       13.00400
H         16.56100        6.75700       13.68200
C         17.47400        9.84700       11.47300
H         18.21200       10.29300       11.93700
H         17.21400       10.37800       10.69000
H         17.75900        8.95600       11.18300
C         15.11100       11.94300       11.75700
H         15.69400       12.61600       12.16600
H         14.18400       12.25700       11.77900
H         15.38500       11.79600       10.82800
C         13.27100       11.02700       14.20400
H         13.60200       11.61200       14.91800
H         12.60800       10.40300       14.57500
H         12.84900       11.56900       13.50500
O         18.20300        5.73700       16.99900
C         17.36100        6.76900       17.30500
H         16.80600        6.53800       18.09200
H         16.75800        6.95500       16.54200
C         18.19800        7.96500       17.60100
H         18.05000        8.26200       18.53400
H         17.95900        8.70700       16.99300
C         19.65500        7.56200       17.39900
H         20.12200        8.19100       16.79600
H         20.13800        7.51900       18.26200
C         19.52600        6.18300       16.76900
H         19.70500        6.23400       15.79600
H         20.17200        5.55700       17.17800
O         18.96400        8.10800        5.51700
C         17.80900        7.83700        4.75500
H         17.71800        8.46800        3.99800
H         16.99100        7.87300        5.31100
C         18.08900        6.43700        4.27400
H         18.51200        6.48300        3.38100
H         17.23200        5.95300        4.17700
C         18.99500        5.65200        5.20800
H         18.52800        4.91800        5.68400
H         19.81500        5.31600        4.77000
C         19.22700        6.87700        6.07100
H         18.67300        6.78500        6.88600
H         20.17600        6.87000        6.35900
C         20.76300       13.80900        6.19800
H         21.54100       14.15400        5.71400
H         19.99600       13.75300        5.58900
H         20.96300       12.91700        6.55000
C         20.42500       14.75200        7.35800
H         20.21200       15.65900        7.02400
H         21.17900       14.81400        7.99500
C         19.18800       14.10500        8.03000
H         18.41400       14.10300        7.41400
H         19.38500       13.17300        8.30200
C         18.90300       14.97600        9.25100
H         18.70500       15.89600        8.94300
H         19.71900       15.01700        9.80800
C         17.73100       14.48300       10.12600
H         17.61400       15.09100       10.88400
H         17.92800       13.58100       10.45700
H         16.91100       14.46400        9.59100
