115
C:\Users\Javier\OneDrive - Universitat de Barcelona\Tesi\4 - Contribucions\Treballs\3-PhD\chapter_1\cif\psp\YIVQAX.psp.pdb
Ru         1.02500        4.90700        6.16100
Cl         0.83500        5.06800        3.72500
S         -2.34900        4.78000        5.75400
P         -0.87600        6.21700        6.32800
P         -0.73900        3.43000        6.08100
C          2.24500        5.01900        8.01400
C          2.52300        3.78400        7.33900
C          3.06500        4.07800        6.05100
C          3.16900        5.51400        5.95500
C          2.68100        6.08700        7.14600
C          1.92400        5.19300        9.46700
H          2.74800        5.38100        9.96300
H          1.51500        4.37300        9.81300
H          1.29900        5.94000        9.57700
C          2.41800        2.41100        7.94200
H          3.20900        2.23300        8.49200
H          2.36100        1.74400        7.22600
H          1.61400        2.36000        8.49900
C          3.59100        3.11200        5.04000
H          4.57000        3.11700        5.06300
H          3.28300        3.37500        4.14800
H          3.26400        2.21300        5.24900
C          3.77000        6.25700        4.80000
H          4.74700        6.23300        4.86900
H          3.46500        7.18800        4.81500
H          3.49100        5.83600        3.96100
C          2.81500        7.53300        7.52100
H          3.73900        7.71600        7.79000
H          2.21100        7.73500        8.26700
H          2.58200        8.09400        6.75100
C         -1.19200        7.70400        5.24000
H         -1.80500        8.31500        5.74100
C         -1.85300        7.40100        3.90100
H         -2.74400        6.99700        4.05600
H         -1.30200        6.74700        3.40100
C         -2.00700        8.67500        3.07500
H         -2.40000        8.45000        2.19500
H         -2.62800        9.29200        3.53700
C         -0.66700        9.37200        2.86500
H         -0.06500        8.78400        2.34300
H         -0.80400       10.20600        2.35000
C         -0.03000        9.69700        4.18900
H         -0.59100       10.35400        4.67200
H          0.85800       10.11000        4.03400
C          0.13800        8.44900        5.04900
H          0.49700        8.70800        5.93500
H          0.79200        7.84100        4.62100
C         -1.50800        6.79900        7.98700
H         -1.24400        6.09600        8.64800
C         -0.82400        8.09400        8.44600
H          0.15800        7.98100        8.40600
H         -1.07500        8.83300        7.83700
C         -1.23800        8.45000        9.87800
H         -0.90600        7.75300       10.49700
H         -0.82200        9.31100       10.13500
C         -2.74300        8.56200       10.00800
H         -3.06600        9.32500        9.46600
H         -2.98100        8.73500       10.95300
C         -3.42500        7.28500        9.53900
H         -4.40700        7.40100        9.58700
H         -3.17500        6.53800       10.14000
C         -3.02100        6.93900        8.10000
H         -3.45300        6.09000        7.83000
H         -3.33400        7.65100        7.48700
C         -1.31700        2.44500        7.54300
H         -0.70900        1.65600        7.61400
C         -1.19000        3.21400        8.85200
H         -1.81500        3.98100        8.84600
H         -0.26900        3.56900        8.93600
C         -1.49800        2.31500       10.05000
H         -0.85400        1.56500       10.07600
H         -1.39900        2.83400       10.88700
C         -2.91200        1.76700        9.95900
H         -3.56200        2.51200       10.02200
H         -3.07800        1.14900       10.71400
C         -3.10800        1.03000        8.64500
H         -4.05400        0.74800        8.57000
H         -2.54600        0.21500        8.64500
C         -2.74300        1.89300        7.42700
H         -2.81800        1.34800        6.60400
H         -3.38200        2.64500        7.35600
C         -0.67300        2.30300        4.57800
H         -0.01200        2.72500        3.95800
C         -0.07400        0.94700        4.95400
H         -0.71200        0.42800        5.50300
H          0.76200        1.07000        5.47200
C          0.22600        0.19100        3.59900
H          0.86600        0.71900        3.05800
H          0.64100       -0.68600        3.79300
C         -1.03900       -0.01400        2.82100
H         -1.68300       -0.54500        3.35500
H         -0.84800       -0.50600        1.98200
C         -1.63700        1.36900        2.49700
H         -0.99400        1.88300        1.94600
H         -2.46700        1.25200        1.97000
C         -1.94900        2.14900        3.76900
H         -2.31200        3.04100        3.53700
H         -2.63000        1.66600        4.30100
C         -1.01700        2.04900        4.85000
H         -1.60900        1.37700        5.29500
C          0.32700        1.35800        4.57800
H          0.77200        1.14700        5.43700
H          0.91600        1.96900        4.06700
C          0.10900        0.05700        3.77600
H         -0.47900       -0.56100        4.27500
H          0.97500       -0.39300        3.60800
C         -0.57300        0.49000        2.39300
H          0.03200        1.09600        1.89900
H         -0.72700       -0.31300        1.83500
C         -1.87800        1.18000        2.65100
H         -2.49900        0.55100        3.09800
H         -2.28200        1.44500        1.78600
C         -1.69500        2.44400        3.54300
H         -1.14000        3.11200        3.06900
H         -2.57700        2.85200        3.73200
