79
C:\Users\Javier\OneDrive - Universitat de Barcelona\Tesi\4 - Contribucions\Treballs\3-PhD\chapter_1\cif\pnp\AHAZOY.pnp.pdb
Ru         4.81600        8.67100       11.01000
P          3.30000       10.21800       11.60200
Cl         6.86200        9.84900       11.53700
P          4.12800        8.34700       13.16000
N          1.77000       10.13400       10.76300
N          0.73100        9.37200       11.30600
N          3.01200        9.64500       13.14000
C          5.97600        9.68300       14.68100
H          5.96400       10.29800       13.98200
C          2.28200       12.83900       11.68800
H          1.43900       12.48100       11.52800
C          2.10200       10.27700       14.21200
H          1.59700       10.98900       13.76600
C          3.21700        6.76700       13.32400
C          2.86800       10.92700       15.33900
C          1.07800        9.27200       14.73400
H          0.60000        8.88700       13.99400
H          0.46000        9.71800       15.31700
H          1.53000        8.57700       15.21800
C          3.90900        5.58600       13.59900
H          4.80300        5.62300       13.85100
C          5.15500        8.55200       14.64400
C          1.92100        6.64500       12.87200
H          1.45600        7.41900       12.64800
C          5.16000        7.67900       15.69900
H          4.60200        6.93500       15.68500
C          3.43400       12.01800       11.73700
C          4.65100       12.57900       11.96300
H          5.39400       12.01800       11.96300
C          5.99700        7.89600       16.79500
H          5.98400        7.31400       17.51900
C          1.96200        4.28100       13.09600
H          1.53500        3.45600       13.05900
C          3.28100        4.37800       13.49800
H          3.75200        3.60300       13.70600
C          6.84400        8.98700       16.78800
H          7.44400        9.11300       17.48800
C          3.14100       10.33200       16.54300
H          2.84900        9.46300       16.69800
C          3.26400       12.25300       15.19100
H          3.04800       12.69400       14.40100
C         -0.14700        9.34600       10.32800
C          6.80400        9.87200       15.76600
H          7.34800       10.62600       15.79800
C          3.96300       12.94300       16.15500
H          4.24700       13.81500       16.00200
C          1.47100       10.51700        9.47900
C          5.87900        7.76800        9.25200
H          6.74400        7.98200        8.98800
C          5.55700        6.78700       10.12400
H          6.15300        6.23500       10.57500
C          2.46500       11.28000        8.68500
H          3.21800       11.49600        9.23900
H          2.06200       12.09000        8.36200
H          2.75600       10.74800        7.94200
C          1.28800        5.45000       12.74100
H          0.41600        5.41100       12.42000
C          4.23500       12.30800       17.36400
H          4.67500       12.76400       18.04300
C          4.86000       13.93500       12.20000
H          5.69900       14.28700       12.39400
C          0.23900        9.98400        9.17800
H         -0.22700       10.04100        8.37600
C          3.72800       14.71300       12.12000
H          3.81300       15.63400       12.22800
C          4.17600        6.75700       10.22200
H          3.66900        6.17600       10.74300
C          2.46500       14.19100       11.88900
H          1.73100       14.76200       11.86600
C          3.85000       11.00900       17.54400
H          4.06000       10.57000       18.33500
C          3.68700        7.76800        9.38700
H          2.79600        7.98300        9.23900
C         -1.43400        8.56500       10.49700
H         -1.49200        8.23400       11.39600
H         -1.44300        7.82600        9.88300
H         -2.18200        9.13900       10.31900
C          4.78000        8.38100        8.82900
H          4.75500        9.10700        8.24800
