70
C:\Users\Javier\OneDrive - Universitat de Barcelona\Tesi\4 - Contribucions\Treballs\3-PhD\chapter_1\cif\pnp\ALITUM.pnp.pdb
Cl         6.65300       11.41800        5.16100
Cl         9.39600       12.51500        6.97400
P          7.88900        8.34100        6.01500
P         10.15100        9.21300        7.01100
N          9.36300        7.74300        6.61700
N          9.56100        6.36600        6.94800
N         10.64000        4.06200        8.26400
H         11.13800        4.42100        8.82800
C         10.61700        9.31400        8.73400
C          9.79100       10.00700        9.61000
H          9.03000       10.43900        9.29500
C         10.10900       10.05000       10.95300
H          9.56200       10.51900       11.54000
C         11.23100        9.40000       11.43400
H         11.42100        9.40700       12.34400
C         12.07600        8.73500       10.54900
H         12.84500        8.31900       10.86500
C         11.77400        8.69600        9.21800
H         12.34300        8.25600        8.62900
C         11.64800        9.40000        6.03800
C         11.85200        8.71700        4.84300
H         11.26300        8.04300        4.58800
C         12.92600        9.03400        4.03500
H         13.07200        8.55900        3.24900
C         13.78400       10.05400        4.38900
H         14.49200       10.28400        3.83200
C         13.58800       10.73200        5.57100
H         14.17500       11.41100        5.81400
C         12.53300       10.41700        6.39300
H         12.40900       10.88400        7.19000
C          9.25600        6.09700        8.35600
H          8.37700        6.44300        8.57500
H          9.90700        6.53800        8.92500
C          9.29300        4.60300        8.59500
H          9.08600        4.41500        9.52400
H          8.62400        4.16800        8.04200
C         11.01600        4.42100        6.87000
H         10.42600        3.96300        6.25100
H         11.92200        4.12200        6.69700
C         10.92800        5.90900        6.63500
H         11.56800        6.37100        7.19800
H         11.13700        6.11000        5.70800
C         10.74500        2.61100        8.51800
H         10.63200        2.44100        9.45700
H         11.60700        2.29800        8.23900
H         10.06200        2.14900        8.02600
C          6.54500        7.78500        7.05900
C          5.79600        6.65400        6.76700
H          5.95200        6.18900        5.97700
C          4.82200        6.21600        7.64000
H          4.31600        5.46600        7.42900
C          4.59600        6.88100        8.81800
H          3.95500        6.56800        9.41500
C          5.31100        8.00300        9.11400
H          5.13600        8.46500        9.90200
C          6.29300        8.46300        8.25900
H          6.78500        9.22000        8.47800
C          7.59500        7.73600        4.36500
C          8.50300        6.95100        3.69100
H          9.25700        6.63000        4.13000
C          8.28500        6.64100        2.34400
H          8.89900        6.11900        1.88200
C          7.16900        7.10800        1.71100
H          7.03400        6.90400        0.81400
C          6.24000        7.87500        2.37400
H          5.48000        8.18100        1.93400
C          6.45000        8.18700        3.71100
H          5.82500        8.69600        4.17200
Pd         8.47800       10.45400        6.28400
Cl         1.90800        5.11100       10.44500
