178
C:\Users\Javier\OneDrive - Universitat de Barcelona\Tesi\4 - Contribucions\Treballs\3-PhD\chapter_1\cif\pnp\CIFRUG.pnp.pdb
Rh         9.37900        2.96800       23.63000
P          8.43900        4.95100       23.99700
P         10.76400        4.58100       22.96700
N          9.68600        5.85800       23.30400
C          8.69100        1.33400       25.10600
C         10.03800        1.09300       24.86400
H         10.65200        1.06000       25.58800
C         10.48800        0.89900       23.56400
H         11.40900        0.73500       23.40000
C          9.59000        0.94500       22.50400
H          9.89700        0.81200       21.61500
C          8.24300        1.18700       22.74500
H          7.62900        1.21800       22.02000
C          7.79300        1.38100       24.04600
H          6.87200        1.54500       24.21100
F          8.26500        1.44900       26.33600
C          9.94200        7.30000       23.30700
H          9.16300        7.76800       23.67500
H         10.10300        7.60500       22.39000
H         10.72900        7.49100       23.85700
C          6.81700        5.32500       23.19400
H          6.14200        4.76300       23.67200
C          6.75500        4.89100       21.73700
H          7.05500        3.95000       21.65800
H          7.36200        5.45600       21.19500
C          5.31900        5.02300       21.21100
H          5.29100        4.76100       20.25700
H          4.72400        4.41200       21.71300
C          4.82400        6.45100       21.36200
H          5.37100        7.05000       20.79300
H          3.88500        6.50700       21.05000
C          4.90500        6.90900       22.79200
H          4.28800        6.36800       23.34400
H          4.62000        7.85300       22.85000
C          6.33200        6.77300       23.34200
H          6.34500        7.03400       24.29800
H          6.93800        7.37900       22.85000
C          8.21400        5.52600       25.73100
H          8.03700        6.50900       25.70700
C          7.00300        4.84600       26.38200
H          7.11400        3.86300       26.33900
H          6.18400        5.08300       25.87900
C          6.84300        5.27700       27.84800
H          6.62600        6.24300       27.88300
H          6.09100        4.77900       28.25600
C          8.10500        5.01600       28.64500
H          8.27900        4.04200       28.67900
H          7.98400        5.34200       29.57200
C          9.29400        5.72000       28.01500
H         10.11100        5.50500       28.53100
H          9.15400        6.69900       28.05700
C          9.48500        5.29800       26.56100
H          9.72900        4.33900       26.52700
H         10.23000        5.81600       26.16500
C         11.26000        4.72500       21.20400
H         11.86700        5.51400       21.11300
C         10.05700        4.93600       20.27700
H          9.57600        5.76100       20.54000
H          9.43200        4.17500       20.36200
C         10.53100        5.05600       18.81500
H          9.74600        5.16300       18.22100
H         11.10000        5.86100       18.71800
C         11.31200        3.84000       18.39500
H         11.63900        3.96500       17.46800
H         10.71600        3.04900       18.40400
C         12.50300        3.58100       19.31700
H         13.15100        4.32500       19.23400
H         12.95600        2.74500       19.04600
C         12.04300        3.46300       20.77800
H         12.83200        3.34900       21.36400
H         11.46600        2.66500       20.88100
C         12.30200        4.88600       23.96800
H         12.00600        5.42700       24.75600
C         12.87800        3.60100       24.54900
H         13.20400        3.02200       23.81500
H         12.16800        3.11100       25.03600
C         14.03600        3.91400       25.50800
H         13.69200        4.42800       26.28400
H         14.42000        3.06700       25.84800
C         15.12700        4.72100       24.81300
H         15.84400        4.93800       25.45900
H         15.52400        4.18200       24.08200
C         14.54500        6.00600       24.24200
H         15.25700        6.50300       23.76700
H         14.21900        6.57400       24.98300
C         13.39600        5.72700       23.27700
H         13.73700        5.23900       22.48500
H         13.00900        6.58300       22.96600
C         10.17600        0.87200       23.05900
C          8.92500        1.05900       22.48200
H          8.81900        0.98800       21.54100
C          7.82700        1.35000       23.28600
H          6.97200        1.47700       22.89200
C          7.98100        1.45500       24.66300
H          7.23100        1.65400       25.21000
C          9.22900        1.26800       25.23700
H          9.33800        1.33900       26.18100
C         10.33000        0.97700       24.43600
H         11.18500        0.85000       24.83000
F         11.23200        0.72700       22.30500
B          2.31800        4.45900       30.07000
C          1.10200        3.44700       30.49200
C          0.10400        3.08900       29.57800
H          0.08300        3.51900       28.73200
C         -0.86100        2.12400       29.86400
C         -0.85600        1.46600       31.09100
H         -1.51300        0.80900       31.29300
C          0.12300        1.79100       32.00700
C          1.08800        2.75600       31.71700
H          1.75400        2.95100       32.36400
C         -1.88800        1.79000       28.83300
F         -2.20500        2.78800       28.04400
F         -1.48400        0.84500       28.01500
F         -3.02500        1.38800       29.32900
C          0.15100        1.05900       33.31700
F         -1.08900        0.94300       33.83500
F          0.59100       -0.15400       33.20000
F          0.83300        1.68000       34.26100
C          3.44200        3.49100       29.38100
C          3.33200        3.10900       28.03900
H          2.60300        3.43800       27.52600
C          4.25600        2.26000       27.42600
C          5.33500        1.76200       28.13700
H          5.98000        1.20500       27.71900
C          5.44800        2.10100       29.47800
C          4.50700        2.93300       30.08700
H          4.59400        3.12700       31.01300
C          4.07300        1.93300       25.97600
F          2.83100        1.53400       25.69100
F          4.31600        2.97900       25.17200
F          4.88900        0.95500       25.56200
C          6.57700        1.55800       30.27100
F          7.76000        1.73000       29.68300
F          6.53600        0.20400       30.33300
F          6.70700        1.95400       31.48100
C          2.93600        5.36000       31.28400
C          4.23300        5.89900       31.19000
H          4.79300        5.61100       30.47900
C          4.73000        6.83300       32.08700
C          3.93900        7.28700       33.13100
H          4.26600        7.93300       33.74600
C          2.65500        6.76900       33.25400
C          2.17400        5.83600       32.35700
H          1.29200        5.50300       32.47200
C          6.12700        7.31800       31.92300
F          6.41100        7.67800       30.67300
F          7.03400        6.36800       32.18400
F          6.43800        8.33100       32.69600
C          1.78500        7.25800       34.36700
F          0.69500        7.88900       33.92600
F          1.19100        6.20100       35.01500
F          2.35200        7.93800       35.28500
C          1.84400        5.63800       29.02300
C          2.75300        6.24100       28.16300
H          3.62200        5.86500       28.08700
C          2.44600        7.37000       27.41100
C          1.17900        7.93700       27.49100
H          0.95400        8.70000       26.97100
C          0.25200        7.36500       28.34500
C          0.57700        6.24300       29.09700
H         -0.07600        5.87400       29.68100
C          3.48200        8.00000       26.55900
F          4.24900        8.84300       27.23900
F          4.31100        7.12200       26.00900
F          2.99100        8.70000       25.54400
C         -1.11700        7.94200       28.41100
F         -1.77000        7.64200       29.52800
F         -1.11600        9.27200       28.27200
F         -1.90100        7.50800       27.41200
F         -2.54900        0.68600       29.09100
F         -2.79100        2.72500       28.70800
F         -1.38200        1.61400       27.64800
F          6.21300        0.68000       31.17700
F          7.11600        2.52400       31.05500
F          7.56900        1.09700       29.60400
F          2.37000        7.06800       35.55700
F          1.72800        8.62400       34.33000
F          0.59500        6.84400       34.42800
