76
C:\Users\Javier\OneDrive - Universitat de Barcelona\Tesi\4 - Contribucions\Treballs\3-PhD\chapter_1\cif\pnp\CIRDOX.pnp.pdb
Pd         2.17500        2.23400        6.24900
P          4.35600        2.27900        5.96200
Cl        -0.06000        2.09300        6.96400
P          3.11600        2.72900        8.19600
Cl         1.71300        1.72600        4.01300
O          8.65000        4.03300        7.14200
N          4.69400        2.65600        7.57400
C          5.04800        0.66500        5.56900
C          2.96100        1.55800        9.56500
C          5.10500        3.52100        4.89200
C          7.82300        4.03200        9.31700
C          2.77300        4.36200        8.87700
C         10.20900        4.00400        8.98700
C          5.55700       -1.58000        6.23900
C          2.05300        6.85900        9.80200
C         10.39100        3.95300       10.35000
C          3.34300        5.50700        8.31700
C          8.94600        4.01700        8.47300
C          2.72400       -0.26200       11.61700
C          3.56500        0.79400       11.75000
C          1.46700        5.73900       10.34400
C          8.05100        4.01600       10.67200
C          6.37700        3.40200        4.39200
C          6.91900        4.43500        3.63100
C          5.19200       -0.28200        6.57200
C          6.02100        2.69200        8.23900
C          4.37500        4.66900        4.64500
C          5.76200       -1.94300        4.95600
C          9.33400        3.94500       11.19300
C          2.10300        0.48400        9.44500
C          1.82800        4.48400        9.88300
C          2.98100        6.74700        8.80700
C          6.42600        4.05100        8.74000
C          5.60500       -1.02700        3.95300
C          5.24900        0.28500        4.24600
C          6.19400        5.58400        3.41100
C          3.67700        1.71900       10.72400
C          9.70700        4.33900        6.24700
C          4.94100        5.69700        3.91100
C          1.98100       -0.42000       10.47500
H         10.94400        4.03000        8.41900
H          5.66200       -2.21100        6.91400
H          1.81400        7.70200       10.11500
H         11.25300        3.92400       10.69600
H          3.95900        5.43500        7.62400
H          2.65100       -0.88400       12.30400
H          4.06400        0.89600       12.52800
H          0.83200        5.82400       11.01700
H          7.32800        4.05400       11.25400
H          6.87500        2.63600        4.56100
H          7.77100        4.34600        3.27000
H          5.04500       -0.04900        7.46000
H          6.69200        2.38000        7.61200
H          6.01100        2.07600        8.98900
H          3.50800        4.75000        4.97000
H          6.00900       -2.81600        4.75400
H          9.46600        3.89200       12.11100
H          1.60700        0.37200        8.66600
H          1.43600        3.72500       10.25000
H          3.37400        7.51400        8.45700
H          5.80000        4.34200        9.42100
H          6.38900        4.68600        8.00800
H          5.73800       -1.28300        3.06900
H          5.14500        0.90500        3.56100
H          6.56600        6.28200        2.92300
H          4.24000        2.45200       10.82200
H         10.12800        5.15900        6.51600
H          9.35500        4.43600        5.35800
H         10.35200        3.62900        6.25900
H          4.45400        6.47400        3.75800
H          1.39300       -1.13700       10.39700
Cl        10.73400        2.80900        2.95500
Cl         9.47800        0.77100        4.48100
Cl        11.33500        0.08300        2.41700
C         10.95700        1.21700        3.61500
H         11.69600        1.24800        4.25600
