32
C:\Users\Javier\OneDrive - Universitat de Barcelona\Tesi\4 - Contribucions\Treballs\3-PhD\chapter_1\cif\pnp\DCPEPD10.pnp.pdb
Cl         8.93100       10.38800        2.89700
Cl         5.53200       10.72400        2.20000
C          6.38500        4.78200        3.67700
C          7.98200        7.00700        6.35000
C          8.77600        7.11900        5.27600
C         10.16800        7.22300        5.35800
C         10.82400        7.21200        6.60200
C          9.96700        7.12600        7.71700
C          4.05000        5.68000        1.32000
C          3.54700        5.26900        0.11900
C          3.88100        5.95400       -1.07600
C          4.61900        7.08600       -1.01000
C          5.10600        7.52200        0.27900
C          7.18300        4.04100        4.71200
C          4.80500        6.81100        1.47200
C         10.02200        5.34900        2.69500
C          9.09200        6.33600        2.37200
C          8.88500        6.71400        1.07800
C          9.61600        6.12700        0.03900
C         10.56700        5.09300        0.38100
C         10.80700        4.75600        1.69400
C          2.84900        7.35000        6.15700
C          1.81000        8.17500        5.63800
C          1.90000        8.65200        4.40600
C          3.00800        8.39500        3.63100
C          4.05700        7.55900        4.07400
C          3.97900        7.06800        5.38200
C          8.51900        6.97100        7.68400
N          6.55400        6.22500        3.71000
Pd         7.00400        9.01500        2.92500
P          5.49000        7.39400        3.01700
P          8.00700        7.14600        3.60800
