216
C:\Users\Javier\OneDrive - Universitat de Barcelona\Tesi\4 - Contribucions\Treballs\3-PhD\chapter_1\cif\pnp\FEPCUB.pnp.pdb
Ru         2.50400       13.16700        6.61100
Cl         2.44400       15.35900        7.56400
P          1.89400       12.53900        8.74300
P          4.35700       12.82100        7.96000
N          3.47000       12.59600        9.39700
C          3.39900       12.93100        4.51100
C          2.78100       11.74000        4.98100
H          3.29600       10.94400        5.05000
C          1.42600       11.71300        5.35300
H          1.03600       10.89200        5.63300
C          0.62700       12.88300        5.31300
C          1.25800       14.08900        4.95200
H          0.77800       14.90500        5.01000
C          2.60600       14.09900        4.49600
H          2.98100       14.90900        4.17200
C          4.81600       12.86300        3.97200
H          5.38600       12.39500        4.64600
C          5.41500       14.25600        3.72600
H          6.35900       14.16600        3.48000
H          5.33700       14.79200        4.54400
H          4.92800       14.69600        2.99900
C          4.82300       12.03700        2.67900
H          4.19600       12.42900        2.03700
H          4.55300       11.11500        2.87900
H          5.72600       12.03700        2.29600
C         -0.83600       12.80200        5.67300
H         -1.37500       12.79400        4.85700
H         -1.08100       13.57800        6.22000
H         -1.00100       11.98000        6.18000
C          3.82900       12.04300       10.74600
H          3.01100       12.11600       11.31400
C          4.91100       12.87500       11.42300
H          5.72000       12.87100       10.86900
H          5.11400       12.49300       12.30100
H          4.59400       13.79500       11.53200
C          4.21400       10.56500       10.71400
H          3.55600       10.06800       10.18000
H          4.22800       10.21000       11.62700
H          5.10100       10.46600       10.31200
C          1.17700       10.90700        9.11700
C          1.33400        9.85200        8.21300
H          1.81400        9.99100        7.40400
C          0.79500        8.60100        8.48300
H          0.89200        7.89900        7.85200
C          0.11900        8.37200        9.66900
H         -0.26800        7.52100        9.84500
C          0.01000        9.39300       10.59200
H         -0.41500        9.22700       11.42700
C          0.51500       10.66000       10.32200
H          0.40900       11.35700       10.95700
C          0.84400       13.61800        9.75200
C         -0.52300       13.63800        9.47100
H         -0.86200       13.14400        8.73400
C         -1.38900       14.37800       10.26200
H         -2.31600       14.39600       10.06000
C         -0.90500       15.08500       11.34200
H         -1.50300       15.57000       11.89700
C          0.45400       15.08900       11.61700
H          0.78500       15.58500       12.35600
C          1.33300       14.36800       10.81400
H          2.26700       14.38900       10.99300
C          5.48900       11.40500        7.81900
C          5.06100       10.20000        7.26200
H          4.21200       10.15300        6.83900
C          5.86700        9.07000        7.31800
H          5.57100        8.25900        6.91900
C          7.09800        9.12000        7.94800
H          7.63100        8.33500        8.02000
C          7.55100       10.31900        8.47700
H          8.40800       10.36000        8.88700
C          6.76000       11.46100        8.40900
H          7.08200       12.28100        8.76300
C          5.49500       14.22800        8.05000
C          5.37600       15.28500        8.95100
H          4.72500       15.25300        9.64100
C          6.21700       16.39300        8.83300
H          6.16200       17.09700        9.47000
C          7.12900       16.47200        7.80000
H          7.67600       17.24300        7.71000
C          7.25100       15.43700        6.89600
H          7.88400       15.49100        6.18700
C          6.44500       14.31800        7.02800
H          6.54000       13.59900        6.41300
C          3.39100       13.02300        4.43400
C          2.93900       11.74500        4.84600
H          3.54000       11.01000        4.81700
C          1.62000       11.53800        5.29400
H          1.35700       10.67300        5.58900
C          0.68000       12.59600        5.31600
C          1.14000       13.88900        4.98800
H          0.53500       14.62300        5.00300
C          2.49900       14.10600        4.63800
H          2.81700       14.99600        4.54000
C          4.76700       13.24400        3.83000
H          5.16400       14.06800        4.23000
C          4.59300       13.46500        2.31200
H          5.46900       13.62200        1.90200
H          4.01700       14.24100        2.15700
H          4.18400       12.66900        1.90900
C          5.72200       12.07800        4.06300
H          5.37600       11.27700        3.61500
H          5.79900       11.90700        5.02500
H          6.60400       12.30000        3.69800
C         -0.76100       12.35600        5.69500
H         -1.24100       11.97400        4.93000
H         -1.17700       13.20700        5.94700
H         -0.80100       11.73600        6.44900
Ru         4.55600       11.53400       17.58600
Cl         6.24200       12.81000       18.70500
P          6.28900       10.70600       16.31500
P          5.57300        9.72600       18.61200
N          6.83300        9.57800       17.47100
C          3.47400       13.13100       16.35900
C          3.30800       13.42700       17.72800
H          3.74400       14.25200       18.08700
C          2.79700       12.48800       18.65600
H          2.86000       12.67900       19.63600
C          2.38000       11.21000       18.22000
C          2.53800       10.88100       16.84500
H          2.40700        9.93600       16.55000
C          3.10900       11.81200       15.95000
H          3.35600       11.50700       15.03000
C          4.02200       14.12200       15.35300
H          4.65400       13.63000       14.75700
C          2.87800       14.65900       14.47700
H          2.40200       13.90800       14.06500
H          3.24700       15.23600       13.77700
H          2.25500       15.17400       15.03000
C          4.79500       15.26400       15.99900
H          4.17400       15.83900       16.49500
H          5.24300       15.78900       15.30400
H          5.46300       14.89800       16.61500
C          1.74200       10.24100       19.17800
H          2.14000       10.35100       20.06600
H          1.89100        9.32500       18.86300
H          0.77900       10.41600       19.22800
C          7.82300        8.49100       17.06100
H          8.35800        8.85800       16.29800
C          8.79900        8.16400       18.16900
H          9.31300        8.96600       18.40100
H          9.41000        7.45900       17.86900
H          8.30600        7.85500       18.95800
C          7.12900        7.22900       16.55300
H          7.80300        6.59700       16.22200
H          6.51900        7.46100       15.82100
H          6.62400        6.81600       17.28200
C          6.02500        9.76700       14.78000
C          4.81200        9.11600       14.56000
H          4.06700        9.30700       15.11800
C          4.68400        8.18900       13.53000
H          3.85400        7.75000       13.38700
C          5.77000        7.90700       12.71000
H          5.68900        7.26200       12.01700
C          6.97400        8.57000       12.90600
H          7.71100        8.38500       12.33800
C          7.10700        9.50100       13.92500
H          7.93000        9.95900       14.04300
C          7.64700       11.82500       15.91400
C          7.47100       12.69500       14.83600
H          6.72900       12.57700       14.25400
C          8.36400       13.72900       14.60500
H          8.22000       14.33100       13.88200
C          9.46800       13.88400       15.43000
H         10.08000       14.59400       15.27800
C          9.68000       12.99900       16.47600
H         10.45100       13.08800       17.02300
C          8.76300       11.98000       16.72700
H          8.90100       11.39000       17.45700
C          4.81200        8.07700       18.77300
C          5.25900        7.17400       19.74500
H          5.86700        7.45900       20.41600
C          4.81000        5.85900       19.72500
H          5.12200        5.23900       20.37200
C          3.90500        5.45700       18.75200
H          3.60200        4.55700       18.74000
C          3.44000        6.33900       17.80600
H          2.81300        6.05300       17.15100
C          3.89600        7.65300       17.81700
H          3.57800        8.26600       17.16500
C          6.21300       10.03500       20.28200
C          5.25400       10.23300       21.26800
H          4.33000       10.16800       21.05300
C          5.64500       10.52400       22.56900
H          4.99200       10.67500       23.24300
C          6.99300       10.59200       22.88000
H          7.26200       10.76400       23.77500
C          7.93800       10.41500       21.90900
H          8.86000       10.46800       22.13200
C          7.56100       10.15700       20.59200
H          8.22000       10.06400       19.91300
C          7.65500        8.33500       17.57000
H          7.61600        8.00900       18.51700
C          9.08200        8.70000       17.25300
H          9.12500        9.11500       16.36800
H          9.63600        7.89000       17.26000
H          9.41600        9.32900       17.92700
C          7.14000        7.22300       16.65500
H          7.07100        6.38900       17.16500
H          7.77000        7.09600       15.91200
H          6.26300        7.46700       16.30600
B          3.39400        7.79100        4.83300
F          4.25200        8.73300        4.27400
F          2.57100        7.26200        3.85600
F          2.61300        8.43700        5.79600
F          4.11900        6.78300        5.44100
B          9.33600       16.80500        3.59100
F          8.70900       17.62300        2.67400
F          9.15600       17.37100        4.86300
F         10.65900       16.68000        3.31300
F          8.75200       15.55200        3.61100
O          8.48100        0.94300        4.92500
H          8.48000        0.10400        4.93000
C          9.71700        1.41000        4.41600
H          9.65800        2.37400        4.24900
H          9.92000        0.94700        3.57800
H         10.42700        1.23300        5.06800
