96
C:\Users\Javier\OneDrive - Universitat de Barcelona\Tesi\4 - Contribucions\Treballs\3-PhD\chapter_1\cif\pnp\IJIXIK.pnp.pdb
Rh         1.92200       10.41800        8.12100
Cl         0.68300       10.31800        6.09300
P          0.19800       11.66100        9.00000
P          0.28800        9.01600        8.95100
O         -6.28500       10.11100       10.30300
N         -0.80700       10.30000        9.20200
C          3.72100       11.07300        6.98400
C          3.66100       11.78800        8.19800
C          3.73200       10.82900        9.28100
C          3.88300        9.52200        8.69700
C          3.82700        9.64400        7.28400
C          3.74200       11.65200        5.60500
H          3.35100       12.55000        5.62100
H          3.22100       11.08000        5.00200
H          4.66700       11.70400        5.28600
C          3.63700       13.26500        8.36900
H          4.54900       13.59000        8.52600
H          3.07300       13.49700        9.13700
H          3.27600       13.68300        7.56000
C          3.91800       11.20300       10.71300
H          3.91400       10.39400       11.26600
H          3.18800       11.79400       10.99200
H          4.77400       11.66700       10.81900
C          4.18500        8.25300        9.43100
H          3.69400        7.51200        9.02000
H          3.91300        8.34500       10.36900
H          5.14700        8.07200        9.38700
C          3.98500        8.56200        6.27900
H          4.82700        8.68600        5.79400
H          3.23700        8.58900        5.64600
H          3.99700        7.69300        6.73300
C          0.36500       12.46500       10.62400
C          0.22900       11.73300       11.80400
H          0.00500       10.81000       11.76400
C          0.41200       12.33800       13.02300
H          0.31300       11.82300       13.81600
C          0.73800       13.67300       13.12300
H          0.86500       14.07900       13.97400
C          0.87500       14.41300       11.95800
H          1.10500       15.33400       12.00800
C          0.68100       13.82200       10.72300
H          0.76100       14.34400        9.93300
C         -0.59900       12.98200        8.03600
C          0.10500       13.57900        7.01400
H          0.94200       13.22200        6.74100
C         -0.41000       14.70900        6.37800
H          0.09700       15.14800        5.70500
C         -1.63400       15.17900        6.72000
H         -1.99600       15.92800        6.25900
C         -2.36900       14.57500        7.74200
H         -3.23000       14.90700        7.96700
C         -1.84100       13.49000        8.42600
H         -2.31600       13.09700        9.14900
C         -2.21700       10.24600        9.53000
C         -3.16100       10.48200        8.53300
H         -2.87300       10.67500        7.65000
C         -4.50500       10.43800        8.81300
H         -5.14100       10.60500        8.12800
C         -4.92800       10.14300       10.11100
C         -3.99100        9.89500       11.11100
H         -4.27600        9.69300       11.99500
C         -2.64500        9.94700       10.80700
H         -2.00400        9.77400       11.48700
C         -6.74600        9.78600       11.63000
H         -6.38200        8.91500       11.89700
H         -7.72500        9.74700       11.63500
H         -6.44300       10.47400       12.25800
C         -0.42000        7.73400        7.88300
C         -1.76700        7.36100        7.90000
H         -2.38400        7.81800        8.45900
C         -2.19600        6.31200        7.08700
H         -3.11200        6.06100        7.08900
C         -1.31100        5.63700        6.28600
H         -1.61600        4.92400        5.73800
C          0.02000        5.99100        6.27600
H          0.64000        5.51400        5.73400
C          0.45400        7.05600        7.06100
H          1.36600        7.31900        7.03100
C          0.50100        8.18200       10.55300
C         -0.27000        7.09000       10.96600
H         -0.92000        6.71700       10.38100
C         -0.08500        6.55800       12.23100
H         -0.62600        5.82800       12.51000
C          0.86000        7.06000       13.08800
H          0.98400        6.67000       13.94500
C          1.63300        8.13400       12.69300
H          2.28700        8.49300       13.28200
C          1.45000        8.69200       11.42700
H          1.98300        9.43100       11.15900
P          7.70500       10.12900        4.74600
F          6.31500        9.87400        4.00400
F          9.08300       10.39800        5.47600
F          7.77400        8.60100        5.12400
F          7.57600       11.63800        4.41800
F          6.92900       10.34200        6.12400
F          8.45300        9.84700        3.41200
