54
C:\Users\Javier\OneDrive - Universitat de Barcelona\Tesi\4 - Contribucions\Treballs\3-PhD\chapter_1\cif\pnp\JONCEU.pnp.pdb
Pd         1.18600        2.89300        3.36800
Cl        -0.69900        2.85700        1.95700
Cl         0.04500        2.17600        5.31500
P          3.22000        3.00600        4.25500
P          2.59300        3.60400        1.80900
N          3.91100        3.66600        2.86600
C          5.33100        3.78000        2.51100
C          3.57700        4.07200        5.65600
C          3.25800        3.59400        6.90900
C          3.47200        4.40300        8.01700
C          4.03100        5.64400        7.86400
C          4.35500        6.11000        6.63900
C          4.12700        5.33900        5.51600
C          4.01400        1.44400        4.66600
C          5.32900        1.41000        5.10300
C          5.91600        0.17800        5.38600
C          5.19500       -0.97100        5.24800
C          3.91300       -0.94600        4.82100
C          3.29900        0.26500        4.51100
C          2.40300        5.22600        1.07700
C          2.95900        6.34200        1.68200
C          2.77500        7.60300        1.09600
C          2.05200        7.71100       -0.03900
C          1.48100        6.66000       -0.64600
C          1.65500        5.37400       -0.08700
C          2.97200        2.47400        0.45600
C          3.65400        2.88900       -0.67100
C          3.96700        1.99100       -1.67400
C          3.58100        0.70500       -1.56800
C          2.90100        0.25400       -0.45400
C          2.60200        1.15200        0.55700
H          5.41200        4.19700        1.66300
H          5.78000        4.30000        3.16600
H          5.71800        2.91200        2.47600
H          2.89700        2.72100        7.01200
H          3.22900        4.09400        8.88000
H          4.19300        6.18200        8.62800
H          4.74000        6.97300        6.54800
H          4.34400        5.67300        4.65300
H          5.82200        2.21400        5.20800
H          6.82100        0.13800        5.67500
H          5.60200       -1.80300        5.45400
H          3.42700       -1.75700        4.73400
H          2.40300        0.28300        4.19500
H          3.46000        6.25400        2.48300
H          3.15800        8.37500        1.49600
H          1.94100        8.57200       -0.42500
H          0.96800        6.77700       -1.43600
H          1.26500        4.61200       -0.50300
H          3.91100        3.79900       -0.75700
H          4.45100        2.27900       -2.43900
H          3.78100        0.09500       -2.26800
H          2.64100       -0.65600       -0.38200
H          2.13600        0.85100        1.32900
