201
C:\Users\Javier\OneDrive - Universitat de Barcelona\Tesi\4 - Contribucions\Treballs\3-PhD\chapter_1\cif\pnp\KIJTAZ.pnp.pdb
Pd         6.50700       11.21700        3.63900
Pd         6.02400        3.88900        1.96700
Pd         9.77800        3.87500       10.90900
Cl         4.70300       12.67900        3.94300
Cl         6.96100       10.91300        5.93500
Cl         5.83900        5.58400        0.32100
Cl         7.86100        2.75000        1.00000
Cl        11.54200        5.18400       10.07600
Cl        10.79500        1.81500       10.38100
P          6.37000       11.22400        1.43500
P          8.24000       10.07200        2.84600
P          4.18100        4.42000        3.06700
P          5.87300        2.56900        3.73500
P          8.63700        5.59900       11.71700
P          7.90100        3.08400       11.80000
N          7.78100       10.28500        1.21900
N          4.48300        3.34700        4.38500
N          7.38800        4.62900       12.34200
C          8.44000        9.99500       -0.04700
C          7.91300        8.95600       -0.81700
H          7.16500        8.46200       -0.50000
C          8.48200        8.64300       -2.04500
H          8.11100        7.95600       -2.58600
C          9.59300        9.34500       -2.46800
H         10.02700        9.09600       -3.27600
C         10.08200       10.40600       -1.73300
H         10.82500       10.90000       -2.06500
C          9.51600       10.77200       -0.51700
C         10.03700       11.98500        0.20200
H         10.81200       11.71600        0.75600
H          9.33400       12.31800        0.81500
C         10.47400       13.14700       -0.72100
H         11.28400       12.89100       -1.20900
H         10.65500       13.94500       -0.18100
H          9.75700       13.34400       -1.36200
C          6.59900       12.73500        0.48600
C          6.57300       12.70000       -0.90700
H          6.32600       11.90700       -1.36700
C          6.91700       13.85100       -1.61300
H          6.91400       13.83500       -2.56200
C          7.26100       15.01600       -0.95400
H          7.50100       15.79200       -1.45100
C          7.25600       15.05400        0.42100
H          7.48200       15.85900        0.87100
C          6.92000       13.91300        1.16200
H          6.91200       13.94000        2.11100
C          4.89200       10.37200        0.79400
C          3.89600       11.08600        0.15800
H          4.03800       11.99800       -0.06400
C          2.70200       10.48300       -0.15200
H          2.01900       10.97700       -0.59000
C          2.49200        9.14900        0.18100
H          1.66900        8.73400       -0.04200
C          3.47300        8.42500        0.82900
H          3.32300        7.51700        1.05700
C          4.69600        9.04300        1.15100
H          5.37600        8.56200        1.60600
C          9.80200       10.88400        3.24300
C         11.03600       10.27400        2.96800
H         11.06400        9.40200        2.59700
C         12.21500       10.95300        3.24400
H         13.05400       10.55700        3.04100
C         12.16000       12.20300        3.81600
H         12.96600       12.66600        4.01200
C         10.94500       12.79000        4.10500
H         10.92600       13.64900        4.51700
C          9.75700       12.15400        3.80000
H          8.92400       12.57600        3.97100
C          8.54300        8.33500        3.20400
C          8.83500        8.01400        4.52800
H          8.81600        8.69100        5.19700
C          9.15500        6.69700        4.87300
H          9.35500        6.47600        5.77500
C          9.17800        5.72200        3.89900
H          9.42000        4.83500        4.13300
C          8.85600        6.02000        2.59100
H          8.85200        5.33600        1.93300
C          8.53700        7.32200        2.24500
H          8.31200        7.52600        1.34400
C          3.56000        2.88900        5.39700
C          2.93900        1.65500        5.17700
H          3.14000        1.15000        4.39700
C          2.03500        1.17300        6.09200
H          1.62100        0.32900        5.94400
C          1.72200        1.89700        7.22000
H          1.09700        1.55600        7.85100
C          2.33000        3.14000        7.43300
H          2.09900        3.63700        8.20800
C          3.26500        3.67100        6.54300
C          3.89500        5.01000        6.86800
H          4.59600        5.19700        6.19600
H          3.20300        5.71300        6.78100
C          4.50600        5.11100        8.23200
H          3.83400        4.88700        8.91000
H          4.82200        6.02800        8.38000
H          5.26200        4.49100        8.30000
C          2.67500        3.88000        2.23100
C          1.48400        3.61600        2.90800
H          1.42200        3.76600        3.84500
C          0.39100        3.13500        2.20300
H         -0.42000        2.94000        2.66100
C          0.47700        2.93700        0.83800
H         -0.28000        2.62000        0.35900
C          1.65300        3.19300        0.16700
H          1.70900        3.04500       -0.77000
C          2.75500        3.67200        0.86400
H          3.56300        3.85600        0.40200
C          3.95800        6.07900        3.71300
C          2.73300        6.64100        3.91500
H          1.95100        6.17100        3.64800
C          2.62000        7.89400        4.50500
H          1.76200        8.27600        4.65000
C          3.75400        8.58300        4.88000
H          3.67400        9.44000        5.28500
C          4.98900        8.04500        4.67100
H          5.76800        8.52400        4.93000
C          5.10500        6.78400        4.07500
H          5.96400        6.40900        3.91700
C          7.16700        2.67200        4.96700
C          8.32300        1.88800        4.81700
H          8.38400        1.26500        4.10300
C          9.38400        2.02800        5.71700
H         10.15200        1.47500        5.63200
C          9.31900        2.95900        6.72600
H         10.04500        3.05900        7.33200
C          8.20200        3.75100        6.85500
H          8.15200        4.39100        7.55300
C          7.14700        3.61300        5.96800
H          6.39200        4.18500        6.05300
C          5.54200        0.81900        3.40300
C          5.03500        0.48700        2.16300
H          4.91800        1.16400        1.50300
C          4.68900       -0.84500        1.86700
H          4.32300       -1.07400        1.02100
C          4.88400       -1.80200        2.81300
H          4.64000       -2.70100        2.62300
C          5.43900       -1.48500        4.06300
H          5.60200       -2.17100        4.70000
C          5.74700       -0.17000        4.35900
H          6.09700        0.05700        5.21200
C          6.09800        4.98600       12.92900
C          5.06500        5.35000       12.06300
H          5.23400        5.41200       11.13200
C          3.84400        5.61200       12.53000
H          3.14700        5.87000       11.93800
C          3.61100        5.49800       13.86100
H          2.73100        5.66000       14.17900
C          4.57200        5.15400       14.77300
H          4.36700        5.10200       15.69800
C          5.90600        4.88000       14.29100
C          6.93200        4.63900       15.30600
H          7.74300        4.28600       14.85800
H          6.60600        3.93300       15.92300
C          7.33000        5.88400       16.14700
H          7.78000        6.53800       15.57100
H          7.93500        5.61700       16.87000
H          6.52400        6.29000       16.53200
C          9.49900        6.44300       13.04000
C          9.75700        7.84600       13.02800
H          9.33500        8.38500       12.37000
C         10.61000        8.45200       13.95600
H         10.77400        9.38800       13.94100
C         11.21000        7.62600       14.90900
H         11.78900        8.01300       15.55500
C         10.98600        6.23300       14.94600
H         11.37700        5.69400       15.62500
C         10.19300        5.67000       13.98400
H         10.10900        4.72500       13.95300
C          7.94500        6.85500       10.62700
C          8.22400        6.85200        9.27900
H          8.83200        6.20900        8.93600
C          7.64500        7.76000        8.40100
H          7.82000        7.71200        7.46900
C          6.82600        8.72400        8.89600
H          6.46800        9.38800        8.31700
C          6.51100        8.73400       10.23800
H          5.89000        9.37800       10.56600
C          7.08100        7.84100       11.10900
H          6.88800        7.88900       12.03700
C          8.01800        1.97200       13.22800
C          9.27600        1.69200       13.72800
H         10.04500        2.06600       13.31400
C          9.42200        0.86300       14.83900
H         10.28700        0.64900       15.17000
C          8.29800        0.35200       15.45600
H          8.39300       -0.19100       16.22900
C          7.04800        0.61900       14.96300
H          6.28300        0.24800       15.38600
C          6.89800        1.43500       13.84500
H          6.03100        1.62300       13.50500
C          6.69900        2.37700       10.65500
C          7.22100        1.78700        9.50700
H          8.16100        1.74200        9.38000
C          6.35300        1.26200        8.54200
H          6.71100        0.87300        7.75300
C          4.98400        1.30200        8.72300
H          4.40100        0.95000        8.06300
C          4.46500        1.87400        9.89300
H          3.52600        1.90400       10.02400
C          5.30900        2.39500       10.85800
H          4.95000        2.76300       11.65600
