85
C:\Users\Javier\OneDrive - Universitat de Barcelona\Tesi\4 - Contribucions\Treballs\3-PhD\chapter_1\cif\pnp\KUCWUB.pnp.pdb
Pd         2.26600       11.41000       17.49200
P          4.08000       11.39900       16.23600
P          3.97800       10.86200       18.76900
Cl         0.80600       12.13100       15.78400
Cl         0.67500       11.37000       19.22900
N          5.11400       10.83200       17.47500
C          6.55700       11.02500       17.58800
C          4.54400       12.08400       19.95900
C          4.58100       13.03200       15.68400
C          7.02400       12.31900       17.61700
H          6.41800       13.02500       17.60000
C          4.23000       10.31600       14.80800
C          4.02500       14.14900       16.30300
H          3.34700       14.04100       16.93200
C          3.89500        9.25800       19.56900
C          5.56800       13.22400       14.73500
H          5.94300       12.49300       14.29900
C          7.43200        9.93900       17.68900
C          3.72800       10.74500       13.58800
H          3.35400       11.59400       13.51100
C          4.76100        9.04200       14.88700
H          5.08800        8.73100       15.70000
C          8.38200       12.59200       17.67000
H          8.69100       13.46800       17.65800
C          3.86800       13.28900       20.05200
H          3.09100       13.42300       19.55800
C          4.47300       15.40700       15.99000
H          4.10500       16.14600       16.41900
C          4.33600       14.27800       20.86600
H          3.87700       15.08300       20.93000
C          5.48300       14.08600       21.59000
H          5.80000       14.76200       22.14200
C          5.99600       14.49500       14.43400
H          6.66300       14.61600       13.79700
C          8.78600       10.26000       17.75900
H          9.39800        9.56300       17.82300
C          7.02200        8.49300       17.74900
C          4.33200        8.68900       12.57800
H          4.38900        8.15200       11.82000
C          9.26500       11.53700       17.74200
H         10.18100       11.69400       17.77800
C          5.70600       11.90000       20.68800
H          6.17100       11.09800       20.62500
C          5.45300       15.58500       15.05600
H          5.75100       16.44100       14.84500
C          6.16900       12.89500       21.50100
H          6.94800       12.76800       21.99400
C          3.78300        9.91200       12.48700
H          3.43500       10.20100       11.67400
C          4.81100        8.22600       13.78000
H          5.16600        7.36900       13.84600
C          7.64300        7.67200       16.61400
H          7.35900        6.75700       16.68800
H          8.60000        7.71500       16.67300
H          7.35800        8.02700       15.77000
C          7.32600        7.89200       19.11200
H          7.05700        6.97100       19.12200
H          6.84500        8.37300       19.78900
H          8.26900        7.95200       19.28500
O          0.27100       10.34700        1.92400
C         -0.14200       10.57200        3.25900
H         -0.03100       11.50400        3.49800
H          0.37700       10.02900        3.87300
C          1.58400       10.63000        1.77800
H          2.11400       10.12500        2.41500
H          1.74500       11.57600        1.92000
C         -1.52500       10.19800        3.29700
H         -1.86600       10.32900        4.18600
H         -1.61400        9.27400        3.05400
H         -2.02000       10.74100        2.68200
C          1.93600       10.25200        0.41100
H          2.86700       10.43100        0.26000
H          1.40900       10.76100       -0.20700
H          1.76600        9.31600        0.28400
C          3.71700        8.13200       18.80500
H          3.70900        8.20200       17.87800
C          3.88300        9.14300       20.92700
H          4.00000        9.89500       21.46300
C          3.51400        6.78800       20.74300
H          3.36400        5.95900       21.13900
C          3.55300        6.89900       19.39900
H          3.46800        6.13900       18.87000
C          3.69400        7.88800       21.51200
H          3.69200        7.80700       22.43900
H          6.12900        8.51500       17.67900
