58
C:\Users\Javier\OneDrive - Universitat de Barcelona\Tesi\4 - Contribucions\Treballs\3-PhD\chapter_1\cif\pnp\KUZTUW.pnp.pdb
Pd         9.94600       11.26800        1.79400
P          9.25800        9.68600        0.37900
P         11.71300       10.08800        1.09700
Cl        11.00000       12.69000        3.37600
Cl         7.88800       12.38000        2.19300
N         10.80900        9.07200        0.07400
C         11.26300        8.22200       -1.07400
H         12.15600        7.86500       -0.88300
H         11.29600        8.76500       -1.88900
H         10.63400        7.48100       -1.20000
C          8.10100        8.46000        1.06800
H          8.45600        8.16400        1.95500
C          6.76800        9.20800        1.30900
H          6.11300        8.55200        1.65700
H          6.92100        9.87400        2.02500
C          6.11600        9.93900        0.11900
H          5.65000        9.26600       -0.43900
H          5.42900       10.55500        0.47300
C          7.06100       10.74400       -0.78800
H          7.30200       11.58600       -0.32500
H          6.57400       10.98600       -1.61500
C          8.35800       10.00800       -1.17700
H          8.91200       10.62300       -1.73800
C          8.13200        8.69900       -1.97400
H          7.57000        8.91800       -2.75900
H          9.01200        8.40000       -2.31800
C          7.48300        7.50700       -1.24900
H          6.50800        7.67000       -1.19400
H          7.61700        6.69600       -1.80000
C          8.00500        7.22500        0.15800
H          8.90300        6.81600        0.08600
H          7.40900        6.56300        0.58900
C         12.77000        9.15400        2.23600
H         12.18300        8.58200        2.81000
C         13.48200       10.18000        3.14500
H         12.79200       10.66000        3.66800
H         14.04800        9.68400        3.78700
C         14.36200       11.22500        2.43500
H         14.60000       11.93000        3.08700
H         15.20300       10.78600        2.15200
C         13.72900       11.89300        1.21000
H         14.43700       12.39400        0.73200
H         13.06500       12.55500        1.52900
C         13.03000       10.95900        0.19500
H         12.60200       11.52800       -0.50700
C         13.97800        9.96800       -0.50600
H         13.47300        9.51000       -1.22300
H         14.70300       10.48500       -0.93900
C         14.61900        8.89800        0.39100
H         15.38400        9.31200        0.86400
H         14.98500        8.18800       -0.19400
C         13.71700        8.22900        1.44200
H         14.29700        7.75500        2.08900
H         13.16700        7.54400        0.98400
C         11.19000        7.76600       -0.51700
H         10.58400        7.55200       -1.25600
H         11.12900        7.06700        0.16800
H         12.11000        7.81500       -0.85100
