104
C:\Users\Javier\OneDrive - Universitat de Barcelona\Tesi\4 - Contribucions\Treballs\3-PhD\chapter_1\cif\pnp\LACGUV.pnp.pdb
Ru         2.42300        4.30100        4.04100
P          0.42000        3.24800        3.56500
Cl         1.87500        5.76700        2.24600
P          2.69200        2.67500        2.42500
N          1.05900        2.22200        2.36600
C          2.17500        5.61100        5.88300
C          2.34100        4.24000        6.24700
H          1.68800        3.83200        6.76700
C          3.44900        3.49500        5.84900
H          3.52300        2.60300        6.10400
C          4.46100        4.08500        5.06100
C          4.29200        5.39500        4.65600
H          4.91400        5.78700        4.08800
C          3.18100        6.14100        5.09900
H          3.12200        7.03500        4.85200
C          0.31900        1.19100        1.61300
H          0.39300        1.39000        0.66700
H         -0.61900        1.25100        1.85100
C          0.78400       -0.23600        1.84000
C          1.81900       -0.75300        1.06100
H          2.21600       -0.23300        0.40100
C          2.25000       -2.05600        1.28600
H          2.95900       -2.39800        0.79000
C          1.65100       -2.84200        2.22500
H          1.94900       -3.71100        2.36000
C          0.60000       -2.35000        2.97500
H          0.17900       -2.89500        3.60000
C          0.17000       -1.03400        2.79100
H         -0.52600       -0.69500        3.30600
C          5.68200        3.29800        4.66800
H          5.62600        2.41400        5.03800
H          5.73000        3.24100        3.71000
H          6.46700        3.73600        5.00200
C          3.69000        1.20500        2.81700
C          4.80900        0.84700        2.08600
H          5.04900        1.33100        1.32900
C          5.57000       -0.23900        2.49300
H          6.33500       -0.46800        2.01500
C          5.22100       -0.96500        3.56600
H          5.75400       -1.67800        3.83300
C          4.09900       -0.66600        4.26300
H          3.84600       -1.19600        4.98400
C          3.32200        0.43100        3.90300
H          2.55900        0.64300        4.39000
C          3.28700        3.17900        0.78500
C          2.67900        2.80800       -0.40400
H          1.90300        2.29600       -0.38600
C          3.22700        3.19600       -1.62900
H          2.82100        2.94500       -2.42800
C          4.36700        3.95000       -1.64200
H          4.73500        4.21300       -2.45400
C          4.97000        4.32300       -0.48100
H          5.75400        4.82400       -0.50700
C          4.42500        3.95900        0.73800
H          4.82800        4.24000        1.52900
C         -0.89900        4.22200        2.78800
C         -1.04200        4.28100        1.41100
H         -0.49700        3.76400        0.86300
C         -1.99500        5.11100        0.85200
H         -2.10200        5.13800       -0.07100
C         -2.78100        5.89100        1.65100
H         -3.42100        6.44500        1.26300
C         -2.64500        5.87200        3.00500
H         -3.17100        6.42700        3.53500
C         -1.70900        5.01900        3.59700
H         -1.63000        4.98200        4.52200
C         -0.47400        2.14700        4.71700
C         -1.78100        1.77000        4.47100
H         -2.25200        2.16300        3.77200
C         -2.39200        0.81400        5.25400
H         -3.26100        0.54200        5.06300
C         -1.72300        0.26500        6.30900
H         -2.14700       -0.37200        6.83800
C         -0.43600        0.63800        6.60100
H          0.00600        0.27300        7.33400
C          0.20000        1.57100        5.78600
H          1.08200        1.81000        5.95900
C          0.99600        6.38600        6.41900
C          0.75600        7.59600        5.48200
H          0.61800        7.27500        4.58400
H          1.53000        8.16400        5.49700
H         -0.01100        8.08000        5.77200
H         -0.01800        5.50400        6.23100
C          1.05100        6.63700        7.84600
H          1.90300        7.02400        8.04500
H          0.95300        5.80700        8.32300
H          0.35200        7.24100        8.11500
H          0.38800        5.84100        5.87700
C          0.36200        6.06900        7.45300
H         -0.12200        6.83000        7.77800
H          0.98000        5.77100        8.12600
H         -0.25100        5.36000        7.24600
C          0.30100        7.33000        5.57300
H         -0.51900        7.66400        5.93900
H          0.17100        7.11200        4.64400
H          0.98000        8.01400        5.63800
B          6.47200        8.45600        5.87100
F          6.34100        9.03300        7.08200
F          6.87100        7.20900        6.00000
F          5.45600        8.47500        5.07500
F          7.28700        9.25300        5.18000
O          4.98600       -2.22500        7.45000
H          4.82400       -2.82400        6.69100
H          5.70200       -1.55200        7.40100
