72
C:\Users\Javier\OneDrive - Universitat de Barcelona\Tesi\4 - Contribucions\Treballs\3-PhD\chapter_1\cif\pnp\OHOJIF.pnp.pdb
Pd        10.85000       12.43700       10.75900
P         11.07800       10.26500       10.47400
P         12.11700       11.65300       12.40500
S         11.26600        7.96600       14.54800
Cl         9.56200       12.68400        8.80300
Cl        10.78900       14.70100       11.40400
N         11.99100       10.04300       11.88700
C         12.78200        8.86800       12.34900
H         13.44200        9.16900       12.99200
H         13.25800        8.49500       11.59000
C          8.89900        9.02800        9.34100
H          9.24900        9.33200        8.53400
C          9.57800        9.27200       10.52800
C         11.95100        7.78900       12.97500
C         13.86000       12.10100       12.38700
C         12.05600        9.75000        9.06200
C          9.79200       12.46100       15.60800
H          8.97300       12.87200       15.76600
C         11.52200       11.79300       14.10300
C         13.13000        8.02300        7.77200
H         13.32800        7.12400        7.63400
C         12.25300       11.28100       15.17700
H         13.08600       10.89300       15.03200
C         10.51900       11.91700       16.66500
H         10.16800       11.94100       17.52500
C         10.29700       12.38700       14.32700
H          9.81200       12.73600       13.61400
C          9.02200        8.87000       11.73400
H          9.45100        9.06700       12.53500
C         12.30300        8.40300        8.81500
H         11.91100        7.75500        9.35600
C         14.33700       13.08000       13.24900
H         13.77900       13.43600       13.90400
C         12.61900       10.71200        8.22900
H         12.46000       11.61500        8.38400
C         14.69600       11.56500       11.42600
H         14.38500       10.89700       10.85700
C         11.65000        6.57900       12.44800
H         11.94500        6.29700       11.61300
C         13.65400        8.98600        6.94500
H         14.17600        8.73100        6.21800
C         11.73500       11.35200       16.45200
H         12.22100       11.01200       17.16900
C         13.42100       10.31700        7.16900
H         13.80000       10.95600        6.61000
C         16.00100       12.02500       11.31100
H         16.56100       11.67500       10.65600
C         15.62700       13.52100       13.13500
H         15.94300       14.17600       13.71500
C          7.70100        8.33400        9.35400
H          7.25400        8.16300        8.55800
C          7.17200        7.89600       10.54500
H          6.37600        7.41500       10.55100
C          7.82200        8.17100       11.73700
H          7.45300        7.88600       12.54200
C         10.83300        5.77700       13.30600
H         10.52800        4.92500       13.09100
C         16.46700       13.00100       12.16600
H         17.34200       13.30800       12.09000
C         10.55900        6.41500       14.46700
H         10.04200        6.04700       15.14700
O          9.42100        8.75800        4.79100
C         10.43400       11.19500        5.11700
H         11.35300       10.93900        5.01000
H         10.37700       11.93800        5.72100
H         10.07100       11.44800        4.26600
C          7.93000       10.64900        5.83000
H          7.27500       10.03800        6.17500
H          7.67500       10.92500        4.94600
H          7.98400       11.41900        6.40100
S          9.52100        9.84300        5.76400
S          9.18400       10.17500        4.75800
