122
C:\Users\Javier\OneDrive - Universitat de Barcelona\Tesi\4 - Contribucions\Treballs\3-PhD\chapter_1\cif\pnp\OPEDIX.pnp.pdb
Ru         2.63000       12.30400        5.08000
P          2.50300       14.43500        4.20400
P          4.35000       12.65400        3.62400
B          0.64900        9.76600        5.49400
H         -0.13500        8.95600        5.53600
N          1.28500       11.36000        3.61900
N          0.53300       10.28500        4.04500
N          0.93500       12.10300        6.38200
N          0.27500       10.91100        6.44600
N          3.08700       10.28700        5.60700
N          2.10100        9.37300        5.72700
N          3.99800       14.31400        3.36400
C          0.95600       11.53200        2.34100
H          1.31000       12.19900        1.79800
C          0.02800       10.60500        1.91800
H         -0.34100       10.52200        1.06800
C         -0.23700        9.82100        3.03400
H         -0.83400        9.11000        3.07700
C          0.38000       12.89200        7.28300
H          0.64200       13.76700        7.46000
C         -0.64800       12.22800        7.92800
H         -1.20100       12.55700        8.59800
C         -0.67700       10.99500        7.37300
H         -1.26800       10.31300        7.60100
C          4.24500        9.65500        5.81400
H          5.08500       10.05400        5.79600
C          3.99800        8.30500        6.05800
H          4.62400        7.63800        6.22800
C          2.65300        8.17400        5.98800
H          2.18400        7.37900        6.10400
C          3.56800       13.04100        6.47700
C          4.04800       13.59300        7.54600
H          3.55200       14.31900        7.85000
C          5.19200       13.30100        8.34600
C          5.72800       12.06500        8.46000
H          5.29400       11.37400        8.01600
C          6.89900       11.72800        9.19800
H          7.28600       10.88500        9.27700
C          7.34600       12.91000        9.77900
H          8.07400       12.76900       10.33900
C          6.98500       14.23100        9.73200
H          7.45300       14.93600       10.11800
C          5.81100       14.33500        9.02100
H          5.40200       15.17100        8.99200
C          2.61300       15.89700        5.28300
C          3.84800       16.36400        5.71800
H          4.62600       15.94800        5.42200
C          3.93900       17.44400        6.59000
H          4.77000       17.74800        6.87800
C          2.78400       18.05800        7.02300
H          2.83300       18.78500        7.59900
C          1.55300       17.59300        6.60100
H          0.77900       18.00700        6.90500
C          1.45700       16.51900        5.73400
H          0.62300       16.21600        5.45500
C          1.19900       14.78500        3.00900
C          1.44900       15.12200        1.68000
H          2.32600       15.24700        1.39600
C         -0.12500       14.58900        3.41200
H         -0.30500       14.33500        4.28700
C          0.41800       15.27300        0.78000
H          0.59800       15.50000       -0.10300
C         -0.88900       15.08500        1.19800
H         -1.58600       15.17300        0.58900
C         -1.16500       14.76600        2.52900
H         -2.04500       14.67300        2.81600
C          6.07100       12.52300        4.14900
C          6.62400       13.44700        5.00400
H          6.10100       14.15200        5.31100
C          7.94000       13.35000        5.41700
H          8.30100       13.97600        6.00000
C          8.70700       12.29800        4.94200
H          9.60100       12.23500        5.18900
C          8.16600       11.34900        4.11300
H          8.68800       10.63500        3.82800
C          6.84800       11.44600        3.69900
H          6.48300       10.80600        3.13000
C          4.20200       11.78400        2.04100
C          3.97700       12.45400        0.85000
H          4.00400       13.38400        0.83400
C          3.71500       11.75600       -0.31200
H          3.57000       12.21400       -1.10700
C          3.66700       10.38200       -0.29400
H          3.46400        9.91200       -1.07000
C          3.92000        9.70000        0.87700
H          3.92800        8.76900        0.87800
C          4.16200       10.39300        2.04600
H          4.29800        9.92800        2.84100
C          4.76200       15.29500        2.63500
C          5.95600       14.94900        2.03000
H          6.25100       14.06700        2.05400
C          6.71300       15.91700        1.38700
H          7.51400       15.67500        0.97900
C          6.30100       17.22700        1.34300
C          5.08500       17.55800        1.91800
H          4.77700       18.43300        1.86900
C          4.32200       16.60300        2.56400
H          3.51000       16.84000        2.95100
C          7.12200       18.21800        0.70800
F          6.61900       19.38900        0.56200
F          7.67400       17.92900       -0.39200
F          8.22100       18.48300        1.42500
S          8.51100       18.54100        7.52600
O          9.01500       18.21900        8.84600
O          9.49500       19.17200        6.70700
O          7.25400       19.17700        7.59000
C          8.50000       17.15400        6.28200
F          8.33100       17.99200        5.30200
F          7.45000       16.59200        6.87800
F          9.60300       16.46200        6.39700
O          8.74800       20.42100        2.88300
H          8.73700       19.67700        2.37500
H          8.26500       20.24500        3.56200
F          7.19000       19.35900        1.33000
F          6.48300       18.57300       -0.39200
F          8.30000       17.97400        0.30300
F          7.32800       16.88100        5.76100
F          8.84400       16.69800        7.45400
F          9.44400       17.41900        5.39100
O          9.86000       18.94500        7.64800
O          7.66200       19.35500        6.77300
O          7.94900       17.76600        8.55700
