103
C:\Users\Javier\OneDrive - Universitat de Barcelona\Tesi\4 - Contribucions\Treballs\3-PhD\chapter_1\cif\pnp\OPEDUJ.pnp.pdb
Ru         3.12400        3.86300        9.83900
P          3.91500        2.54500        8.14400
O          0.32800        3.86300        8.75800
B          3.60200        3.86300       12.99700
H          3.69900        3.86300       14.06900
N          2.56500        2.39100       11.27100
N          2.82100        2.59900       12.58900
N          4.98200        3.86300       10.91900
N          4.91800        3.86300       12.29200
N          4.27900        3.86300        7.09400
C          2.06400        1.17100       11.18300
H          1.79100        0.77300       10.39000
C          1.99700        0.56200       12.43100
H          1.69100       -0.29200       12.63500
C          2.48100        1.50000       13.27900
H          2.56600        1.39800       14.20000
C          6.26900        3.86300       10.61900
H          6.60500        3.86300        9.75200
C          7.06100        3.86300       11.76600
H          7.99000        3.86300       11.82300
C          6.15500        3.86300       12.78300
H          6.36900        3.86300       13.68900
C          5.42200        1.62900        8.50900
C          6.61700        1.79600        7.82800
H          6.65100        2.34700        7.08100
C          7.75900        1.14300        8.25700
H          8.56900        1.28700        7.82300
C          7.69200        0.28400        9.32800
H          8.45300       -0.18700        9.58500
C          6.52400        0.10800       10.02300
H          6.49600       -0.45600       10.76100
C          5.39100        0.78300        9.61400
H          4.59700        0.66900       10.08200
C          2.83800        1.40400        7.23600
C          1.85300        1.85900        6.37500
H          1.75400        2.77500        6.25100
C          1.02100        1.00700        5.70100
H          0.38800        1.34000        5.10600
C          1.13200       -0.32600        5.91200
H          0.57000       -0.91600        5.46200
C          2.06400       -0.80000        6.77800
H          2.12700       -1.71700        6.92900
C          2.90900        0.05300        7.43200
H          3.54400       -0.29200        8.01800
C          4.68900        3.86300        5.73500
C          4.91300        2.67200        5.06600
H          4.79000        1.86200        5.50600
C          5.32000        2.68600        3.73900
H          5.45700        1.88400        3.28900
C          5.51800        3.86300        3.09500
C          6.04900        3.86300        1.66200
F          7.37100        3.86300        1.53900
F          5.71300        4.99900        0.99900
F          5.15600        3.04700        0.97400
C          1.42900        3.86300        9.12400
S         -0.01400        3.86300        2.75400
O          0.99900        3.86300        3.81100
O         -0.52100        2.55300        2.65700
C          1.31800        3.86300        1.61600
F          0.53000        3.86300        0.40400
F          1.99400        2.73300        1.35300
F          7.09100        2.93900        1.57300
F          1.13500        3.86300        0.30800
F          2.16700        3.00200        2.12300
O          0.44100        3.86300        4.10700
O         -0.76400        2.77700        2.32900
P          3.91500        5.18100        8.14400
N          2.56500        5.33500       11.27100
N          2.82100        5.12700       12.58900
C          2.06400        6.55500       11.18300
H          1.79100        6.95300       10.39000
C          1.99700        7.16400       12.43100
H          1.69100        8.01800       12.63500
C          2.48100        6.22600       13.27900
H          2.56600        6.32800       14.20000
C          5.42200        6.09700        8.50900
C          6.61700        5.93100        7.82800
H          6.65100        5.37900        7.08100
C          7.75900        6.58300        8.25700
H          8.56900        6.43900        7.82300
C          7.69200        7.44200        9.32800
H          8.45300        7.91300        9.58500
C          6.52400        7.61800       10.02300
H          6.49600        8.18200       10.76100
C          5.39100        6.94300        9.61400
H          4.59700        7.05700       10.08200
C          2.83800        6.32200        7.23600
C          1.85300        5.86700        6.37500
H          1.75400        4.95100        6.25100
C          1.02100        6.71900        5.70100
H          0.38800        6.38600        5.10600
C          1.13200        8.05200        5.91200
H          0.57000        8.64200        5.46200
C          2.06400        8.52600        6.77800
H          2.12700        9.44300        6.92900
C          2.90900        7.67400        7.43200
H          3.54400        8.01800        8.01800
C          4.91300        5.05400        5.06600
H          4.79000        5.86400        5.50600
C          5.32000        5.04000        3.73900
H          5.45700        5.84200        3.28900
O         -0.52100        5.17300        2.65700
F          1.99400        4.99300        1.35300
