81
C:\Users\Javier\OneDrive - Universitat de Barcelona\Tesi\4 - Contribucions\Treballs\3-PhD\chapter_1\cif\pnp\QEWXEY.pnp.pdb
Pd         8.18000        4.57400        8.04800
I          6.52000        2.61900        8.63300
P          9.88900        3.26900        7.46700
C          9.70700        2.26000        5.97800
C          8.64500        2.50100        5.11600
H          8.03500        3.20600        5.30500
C          8.47100        1.72200        3.98400
H          7.74500        1.89200        3.39500
C          9.35200        0.69700        3.71300
H          9.22100        0.15200        2.94700
C         10.41600        0.46500        4.54500
H         11.02900       -0.23200        4.34300
C         10.60100        1.23500        5.66800
H         11.34200        1.06700        6.23800
C         10.63000        2.17400        8.69300
C         11.68200        2.59100        9.50900
H         12.06800        3.45100        9.38800
C         12.15400        1.76000       10.48400
H         12.87700        2.04600       11.02900
C         11.61000        0.52500       10.68900
H         11.95000       -0.03300       11.38000
C         10.57300        0.08800        9.90500
H         10.19500       -0.77200       10.05000
C         10.07200        0.91300        8.89000
H          9.35700        0.61700        8.34200
N         10.94300        4.57400        7.19700
C         12.33800        4.57400        6.69200
C         12.46300        4.57400        5.19000
C         13.91800        4.57400        4.76800
Si        14.26400        4.57400        2.98200
C         16.57600        4.57400        1.54800
H         17.53700        4.57400        1.73900
H         16.34400        3.77500        1.03300
O         15.84700        4.57400        2.78000
O         13.99200        2.86500        2.46000
C         12.74800        2.34600        2.17400
H         12.83900        1.40500        1.91200
H         12.17700        2.41000        2.96800
H         12.34400        2.85200        1.43800
H         12.81900        3.76900        6.95000
H         11.88500        3.73200        4.78500
H         14.38500        3.95200        5.13100
H         16.34400        3.77500        1.03300
O         13.35000        5.41600        2.20800
C         13.06800        3.73100        0.79200
H         12.40000        3.03700        0.59500
H         13.88800        3.54400        0.29400
H         12.71300        4.60500        0.52800
P          9.88900        5.88000        7.46700
C          9.70700        6.88900        5.97800
C          8.64500        6.64700        5.11600
H          8.03500        5.94300        5.30500
C          8.47100        7.42700        3.98400
H          7.74500        7.25600        3.39500
C          9.35200        8.45100        3.71300
H          9.22100        8.99600        2.94700
C         10.41600        8.68400        4.54500
H         11.02900        9.38100        4.34300
C         10.60100        7.91300        5.66800
H         11.34200        8.08200        6.23800
C         10.63000        6.97500        8.69300
C         11.68200        6.55700        9.50900
H         12.06800        5.69800        9.38800
C         12.15400        7.38800       10.48400
H         12.87700        7.10300       11.02900
C         11.61000        8.62300       10.68900
H         11.95000        9.18100       11.38000
C         10.57300        9.06000        9.90500
H         10.19500        9.92000       10.05000
C         10.07200        8.23500        8.89000
H          9.35700        8.53200        8.34200
H         16.34400        5.37400        1.03300
O         13.99200        6.28300        2.46000
C         12.74800        6.80300        2.17400
H         12.83900        7.74300        1.91200
H         12.17700        6.73900        2.96800
H         12.34400        6.29600        1.43800
H         12.81900        5.37900        6.95000
H         11.88500        5.41600        4.78500
H         14.38500        5.19600        5.13100
I          6.52000        6.52900        8.63300
