63
C:\Users\Javier\OneDrive - Universitat de Barcelona\Tesi\4 - Contribucions\Treballs\3-PhD\chapter_1\cif\pnp\QIQDID.pnp.pdb
Pd         8.57500        1.35700       12.14400
Cl         6.31900        2.00800       12.27800
Cl         9.41100        3.07500       13.52400
P          8.25700       -0.42500       10.84200
N          9.89800       -0.89800       10.94000
P         10.55900        0.47200       11.71900
C         10.72600       -1.92400       10.28400
H         11.53300       -2.02800       10.82900
C         11.17900       -1.47700        8.90600
O         10.54200       -0.81500        8.16300
C         12.97700       -1.50500        7.37500
H         13.86600       -1.85900        7.29400
H         13.00800       -0.54600        7.32100
H         12.43000       -1.84900        6.66600
O         12.41300       -1.89900        8.65700
C         10.04300       -3.28700       10.23700
H          9.76900       -3.53900       11.12300
H         10.65700       -3.94200        9.89400
H          9.27300       -3.24100        9.66500
C          7.71600       -0.15200        9.13600
C          7.48700       -1.21000        8.25900
H          7.58300       -2.08500        8.55800
C          7.12300       -0.96800        6.95400
H          6.97100       -1.68000        6.37600
C          6.98100        0.31900        6.50900
H          6.73300        0.47800        5.62700
C          7.20600        1.37500        7.35600
H          7.11200        2.24800        7.04800
C          7.57400        1.14000        8.67800
H          7.72500        1.85600        9.25300
C          7.17800       -1.71400       11.51600
C          7.58300       -2.47800       12.60000
H          8.44600       -2.38500       12.93500
C          6.71300       -3.38000       13.18400
H          6.99600       -3.90100       13.90100
C          5.43700       -3.50500       12.71200
H          4.85300       -4.11000       13.10900
C          5.01600       -2.74700       11.66200
H          4.14600       -2.83900       11.34800
C          5.87200       -1.84100       11.05500
H          5.57400       -1.32300       10.34200
C         11.68600       -0.16400       12.97200
C         12.79600        0.58000       13.37300
H         12.94600        1.42300       13.01200
C         13.67000        0.06300       14.30100
H         14.41100        0.56200       14.56300
C         13.45900       -1.17700       14.84600
H         14.05600       -1.51400       15.47500
C         12.36700       -1.92700       14.46500
H         12.23300       -2.77400       14.82900
C         11.46700       -1.42200       13.54200
H         10.72000       -1.91800       13.30000
C         11.55600        1.40300       10.52700
C         10.94800        2.41900        9.81000
H         10.07700        2.67300       10.01600
C         11.63000        3.06100        8.78700
H         11.21500        3.73700        8.30100
C         12.91500        2.69500        8.49500
H         13.36900        3.11700        7.80100
C         13.53600        1.71900        9.21500
H         14.41600        1.49300        9.01500
C         12.87800        1.06300       10.23300
H         13.31100        0.39900       10.71900
