61
C:\Users\Javier\OneDrive - Universitat de Barcelona\Tesi\4 - Contribucions\Treballs\3-PhD\chapter_1\cif\pnp\TAJYOU.pnp.pdb
C         -1.06300        1.96300        3.48600
C         -0.48500        1.10300        2.55600
H          0.27200        1.38500        2.05500
C         -1.01100       -0.16300        2.35900
H         -0.63100       -0.73500        1.70200
C         -2.07800       -0.59800        3.10700
H         -2.42900       -1.47100        2.97500
C         -2.63500        0.23300        4.04700
H         -3.36100       -0.07600        4.57500
C         -2.15000        1.51600        4.23200
H         -2.55800        2.09100        4.86900
C          2.86100        3.45000        1.43500
C          3.61000        2.37200        1.89200
H          3.58400        2.12700        2.80900
C          4.39600        1.65800        1.00200
H          4.92100        0.93100        1.31200
C          4.41500        1.99800       -0.33100
H          4.95200        1.49900       -0.93600
C          3.66500        3.05400       -0.79200
H          3.66900        3.27000       -1.71600
C          2.90600        3.79900        0.08700
H          2.41600        4.54900       -0.22600
C          2.30500        6.10700        2.35500
C          3.64200        6.44000        2.17700
H          4.29200        5.75500        2.07700
C          4.02700        7.76500        2.14800
H          4.94400        7.99000        2.04500
C          3.08900        8.75600        2.27000
H          3.35800        9.66700        2.24500
C          1.75700        8.43700        2.42900
H          1.10800        9.12700        2.49900
C          1.36800        7.11800        2.48700
H          0.45200        6.90200        2.61900
C         -1.28200        5.61000        5.36800
H         -0.30200        5.80000        5.41900
C         -1.77300        5.28600        6.76200
H         -2.72200        5.04300        6.72600
H         -1.65900        6.07000        7.33800
H         -1.25700        4.53600        7.12400
C         -1.97400        6.83700        4.81600
H         -1.60200        7.05300        3.93500
H         -1.83300        7.59300        5.42500
H         -2.93400        6.66000        4.73100
C         -0.51500        4.50700        1.01000
H         -0.00900        5.23000        0.54000
C         -0.61500        3.31900        0.07400
H          0.27600        2.93400       -0.06200
H         -0.97700        3.61300       -0.78800
H         -1.20700        2.64400        0.46400
C         -1.90600        5.02300        1.30500
H         -2.41000        4.34000        1.79600
H         -2.36500        5.22400        0.46400
H         -1.84500        5.83600        1.84700
Cl         1.23100        2.88300        6.83800
Cl         4.01700        3.96700        5.16200
N         -1.47900        4.45000        4.49900
N          0.20000        4.19400        2.28200
P         -0.31600        3.58100        3.78600
P          1.84700        4.38700        2.59800
Pd         1.72200        3.66400        4.67300
H         -2.19200        4.23700        4.36700
