65
C:\Users\Javier\OneDrive - Universitat de Barcelona\Tesi\4 - Contribucions\Treballs\3-PhD\chapter_1\cif\pnp\UYINOH.pnp.pdb
Pd        10.25800        4.80500        3.72600
Cl         9.27800        6.85800        3.07500
Cl        12.35600        5.68400        4.38600
P          8.57900        3.50300        3.12500
P         10.76300        2.71400        4.25100
N          9.29000        2.07900        3.68500
N          7.03400        3.53400        3.75400
C          8.31500        3.38100        1.35000
C          7.26100        2.66500        0.81200
H          6.69400        2.34500        1.35600
C          7.19000        2.44800       -0.53600
H          6.52800        2.04500       -0.82900
C          8.15400        2.91700       -1.37100
H          8.13000        2.71100       -2.26000
C          9.17800        3.63300       -0.85900
H          9.73600        3.89200       -1.32600
C          9.25900        3.88200        0.48700
H          9.89100        4.35500        0.78400
C          6.38000        2.03000        5.55400
H          6.21000        1.51600        4.97300
C          6.18300        1.75500        6.88500
H          5.84100        1.01400        7.11300
C          6.45400        2.70300        7.82700
H          6.36300        2.51200        8.68000
C          6.92400        3.92200        7.44100
H          7.07100        4.50100        7.98700
C          7.13700        4.19800        6.12000
H          7.41700        4.97400        5.86200
C          6.86800        3.24400        5.15500
C          8.86400        0.67300        3.35300
C          9.11200       -0.25800        4.51600
H         10.06700       -0.22500        4.77700
H          8.89000       -1.08100        4.28000
H          8.59500        0.08200        5.34900
C          9.48400        0.16800        2.06700
H          9.39500        0.77200        1.37100
H          9.02900       -0.57400        1.80800
H         10.43400        0.02900        2.15500
C         11.00100        2.43700        6.01900
C          9.96500        2.09600        6.86500
H          9.15600        1.90400        6.54700
C         10.16300        2.03800        8.22800
H          9.40800        1.87600        8.77000
C         11.39400        2.35400        8.75700
H         11.54400        2.36200        9.68900
C         12.42600        2.71300        7.92600
H         13.20900        2.93100        8.27300
C         12.24300        2.75700        6.56700
H         12.84700        3.03600        6.05800
C         12.12900        1.89200        3.39200
C         12.79400        0.80800        3.93300
H         12.57000        0.59500        4.71700
C         13.74300        0.14100        3.19000
H         14.17800       -0.55000        3.55600
C         14.03700        0.54600        1.94100
H         14.59100        0.21300        1.49200
C         13.39900        1.62800        1.37900
H         13.53900        1.91000        0.60300
C         12.45200        2.30100        2.12500
H         12.01700        2.92000        1.76800
C          6.12200        4.59100        3.24100
H          5.30600        4.22600        3.40600
H          6.25300        4.58900        2.36600
H          6.20400        5.34300        3.90300
H          8.04800        0.76800        3.22500
