216
C:\Users\Javier\OneDrive - Universitat de Barcelona\Tesi\4 - Contribucions\Treballs\3-PhD\chapter_1\cif\pnp\UYINUN.pnp.pdb
Pd         3.84500       14.15700        4.84500
P          1.84300       14.55000        3.94200
P          2.23700       13.95400        6.50600
C          1.21800       13.38400        2.71600
C          2.06000       12.36400        2.23500
H          2.94500       12.32900        2.52100
C          1.60400       11.41100        1.34600
H          2.18800       10.75500        1.04200
C          0.40700       11.41500        0.93500
H          0.10300       10.72600        0.38800
C         -0.48200       12.47500        1.31000
H         -1.33100       12.53700        0.93500
C         -0.07600       13.36000        2.19700
H         -0.68200       14.00200        2.49000
C          1.55600       16.21800        3.23800
C          1.12300       16.40100        1.92200
H          0.95600       15.67900        1.35900
C          0.96700       17.60500        1.52600
H          0.63000       17.70900        0.66600
C          1.24200       18.80400        2.23100
H          1.06700       19.66000        1.91600
C          1.80400       18.51600        3.44400
H          2.18900       19.20600        3.93500
C          1.81600       17.31000        3.93700
H          2.02000       17.21000        4.83900
C         -0.43900       14.52300        5.76700
H         -0.49700       14.73500        6.72100
C         -1.14400       15.68300        5.02600
H         -1.19900       15.47700        4.09100
H         -0.64200       16.49200        5.14800
H         -2.02800       15.79800        5.38200
C         -1.12200       13.23200        5.59000
H         -0.98900       12.91900        4.69200
H         -2.06100       13.34100        5.75700
H         -0.76000       12.59300        6.20900
C          2.17700       15.12800        7.87900
C          1.62000       16.40800        7.75000
H          1.18900       16.63700        6.95700
C          1.69400       17.32700        8.75700
H          1.31100       18.16800        8.63900
C          2.34200       17.02300        9.97100
H          2.40400       17.64900       10.65600
C          2.87200       15.77300       10.09900
H          3.27600       15.53500       10.90100
C          2.82500       14.85200        9.08100
H          3.23500       14.02600        9.19500
C          0.93600       12.35600        8.38000
H          0.25900       11.72900        8.11500
H          0.52900       13.20200        8.58000
H          1.39100       12.02800        9.15800
C          2.43400       11.26700        6.75800
C          3.10900       10.38700        7.59800
H          3.22900       10.59700        8.49600
C          3.60900        9.18200        7.08400
H          4.07100        8.59400        7.63400
C          3.41200        8.88600        5.76500
H          3.75500        8.09900        5.40500
C          2.73700        9.71900        5.00900
H          2.59400        9.47500        4.12400
C          2.21500       10.94000        5.43300
H          1.74800       11.50000        4.85700
C          5.10400       14.50700        3.24700
C          4.80200       14.86900        1.96500
H          3.91600       14.93900        1.69300
C          5.86300       15.14100        1.05200
H          5.64700       15.38900        0.18000
C          7.06400       15.06400        1.36900
H          7.72300       15.26700        0.74400
C          7.41600       14.68100        2.64300
H          8.31600       14.60500        2.86600
C          6.42600       14.39700        3.62400
N          1.00200       14.43600        5.45300
N          1.90200       12.52700        7.28300
N          5.74500       13.74900        5.76100
C          6.61800       14.61400        5.15500
H          7.53100       14.34700        5.39000
C          6.23200       15.72300        6.02000
H          5.35700       16.03100        5.77200
H          6.86200       16.44100        5.92200
H          6.22100       15.42800        6.93300
C          5.79200       13.49500        7.19500
H          6.70600       13.47900        7.48700
H          5.38000       12.64900        7.38400
H          5.31900       14.19200        7.65800
C          6.09500       12.12900        5.10700
H          6.50000       12.21400        4.24100
H          5.27900       11.63000        5.03000
H          6.69700       11.66800        5.69700
Pd        11.68000        7.83200        4.52700
P         10.06900        8.03200        2.85900
P          9.67800        7.43400        5.43600
C          9.40700        5.78600        6.14000
C          9.66600        4.69900        5.37700
H          9.92900        4.81600        4.49400
C          9.54300        3.37200        5.89600
H          9.81300        2.64100        5.39000
C          9.03500        3.19700        7.11600
H          8.84100        2.34900        7.44400
C          8.80500        4.35200        7.89100
H          8.50700        4.23500        8.76200
C          8.97400        5.54100        7.48400
H          8.81800        6.25500        8.05700
C          9.04200        8.62800        6.66300
C          9.90900        9.59100        7.11800
H         10.78000        9.63300        6.79400
C          9.47600       10.48300        8.04600
H         10.07900       11.10000        8.39300
C          8.19900       10.50300        8.47900
H          7.91600       11.17700        9.05500
C          7.37000        9.59300        8.10200
H          6.50400        9.57700        8.44000
C          7.78900        8.62800        7.17300
H          7.18900        7.97000        6.90300
C          7.39900        7.40300        3.64600
H          7.35600        7.19500        2.69000
C          6.71200        8.77800        3.77200
H          7.14600        9.29100        4.45800
H          5.78800        8.65500        4.00100
H          6.77500        9.24500        2.93600
C          6.68200        6.31200        4.28400
H          7.08100        5.47500        4.03200
H          5.76300        6.32500        4.00400
H          6.72800        6.41400        5.23800
C         10.27000       10.72100        2.63800
C         10.06700       11.07100        3.92200
H          9.58500       10.51000        4.48400
C         10.56900       12.25800        4.40000
H         10.43500       12.46600        5.29800
C         11.21200       13.08500        3.67800
H         11.54100       13.86800        4.05900
C         11.43700       12.83100        2.28100
H         11.88300       13.44700        1.74700
C         10.95500       11.60600        1.74500
H         11.08000       11.39000        0.84900
C          8.81700        9.69800        0.95200
H          8.05300       10.19200        1.25800
H          8.52900        8.85900        0.58700
H          9.27300       10.20200        0.27400
C         10.00000        6.86600        1.49800
C         10.66500        7.16400        0.28900
H         11.06800        7.99300        0.17400
C         10.71700        6.24700       -0.70500
H         11.14700        6.47700       -1.49600
C         10.17100        5.00900       -0.60200
H         10.20800        4.41300       -1.31600
C          9.55100        4.64800        0.60200
H          9.19200        3.79500        0.69400
C          9.46200        5.56600        1.68700
H          9.06500        5.32100        2.49300
C         12.94500        7.51700        6.13600
C         12.62100        7.08500        7.43100
H         11.73500        6.95600        7.68200
C         13.66100        6.85800        8.32900
H         13.45900        6.61800        9.20500
C         14.91600        6.97500        7.97100
H         15.59500        6.75900        8.56700
C         15.20500        7.40200        6.75800
H         16.09800        7.56000        6.54800
C         14.26700        7.62400        5.79500
N          8.83700        7.57600        3.92200
N          9.74000        9.45300        2.09200
N         13.58800        8.20200        3.64600
C         14.51700        7.34000        4.15200
H         15.42700        7.57600        3.87300
C         13.97300        6.24300        3.36500
H         13.04300        6.13100        3.57100
H         14.44600        5.43300        3.57300
H         14.07200        6.43900        2.43000
C         13.56100        8.50300        2.15600
H         14.44500        8.73100        1.86000
H         12.96800        9.24100        1.98900
H         13.25100        7.73000        1.67800
C         13.95700        9.80500        4.26900
H         14.23200        9.73500        5.18700
H         13.17500       10.35800        4.21100
H         14.66500       10.19500        3.75100
Cl         4.40000       10.20700       15.55400
Cl         2.79400       11.14100       17.42900
Cl         3.03700        8.33700       17.21100
C          3.10700        9.52100       16.25200
H          2.38700        9.45100       15.59500
Cl        10.83900        8.31700       10.86800
Cl        12.22000        6.57900       12.57200
Cl        10.58900        5.64600       10.65400
C         10.83600        6.88100       11.59300
H         10.07500        6.89900       12.21000
P          2.73400        6.50500        1.98700
F          2.62900        6.67200        3.53800
F          3.25500        6.31600        0.46700
F          1.39800        5.69700        1.94600
F          3.29100        5.33900        3.10100
F          1.56300        7.59100        1.61200
F          3.79500        7.44900        2.58500
P         10.57300       -0.90700        7.37800
F         11.28400        0.30100        7.12900
F         10.14900       -1.11200        6.02700
F          9.42300       -0.03800        7.61300
F          9.61500       -2.13100        7.79300
F         10.68500       -0.67200        8.75100
F         11.59100       -2.00500        6.92100
O          5.50700        2.43900        3.98700
O          7.96400        1.94000        2.69400
O         15.45700        3.19500        6.09800
O         13.06600        3.06000        5.59000
O         13.83000        2.75000        8.20500
O          5.95500        2.81500        1.09900
O          6.11100        1.86900        2.67900
F          3.34800        5.14700        2.30600
F          2.56900        6.78700        0.56100
F          4.42300        6.54600        1.59200
F          1.65700        6.85000        3.13800
F          2.56400        5.17600        1.14500
F          3.46200        8.06000        2.15600
O         15.83900        3.63300        6.76900
O         13.76100        3.28800        5.09400
O         13.97700        3.77400        6.71500
