180
C:\Users\Javier\OneDrive - Universitat de Barcelona\Tesi\4 - Contribucions\Treballs\3-PhD\chapter_1\cif\pnp\UYIPAV.pnp.pdb
Pd         3.17400        1.47800       10.77700
P          3.02900        3.16700        9.31900
P          1.90700        0.80100        8.92200
N          2.32200        2.23300        8.08100
N          3.24000       -0.20200       12.08300
C          4.37300        2.26600       12.22700
C          5.20800        3.36100       12.17800
H          5.22800        3.88000       11.40600
C          6.01400        3.70700       13.24300
H          6.56400        4.45600       13.18900
C          6.00100        2.95700       14.36700
H          6.56300        3.17300       15.07400
C          5.15800        1.87200       14.46700
H          5.14600        1.37500       15.25400
C          4.32600        1.51100       13.41300
C          3.37800        0.36900       13.48100
H          2.50500        0.75100       13.71100
C          3.67700       -0.67800       14.54300
H          4.59100       -0.96100       14.46300
H          3.09600       -1.43100       14.42200
H          3.53400       -0.29900       15.41400
C          2.04900       -1.07400       11.97400
H          2.02500       -1.47400       11.10100
H          1.25500       -0.55100       12.10800
H          2.09200       -1.76300       12.64000
C          4.42300       -0.99800       11.73800
H          4.46300       -1.77300       12.30400
H          5.21300       -0.46800       11.86500
H          4.36600       -1.27400       10.82200
C          0.11500        0.69100        9.09000
C         -0.41100        1.12000       10.30900
H          0.15400        1.41700       10.98400
C         -1.79900        1.09700       10.50900
H         -2.15800        1.37100       11.32100
C         -2.60900        0.67400        9.52000
H         -3.52900        0.67600        9.65400
C         -2.11500        0.24700        8.33000
H         -2.69200       -0.06800        7.67200
C         -0.76700        0.28000        8.10000
H         -0.43600        0.02300        7.27000
C          2.48500       -0.63700        7.97900
C          1.72800       -1.74800        7.70000
H          0.83200       -1.77100        7.94900
C          2.28600       -2.82900        7.05500
H          1.75400       -3.56500        6.86300
C          3.57500       -2.84500        6.69900
H          3.93300       -3.58600        6.26100
C          4.36100       -1.76100        6.98700
H          5.26400       -1.76300        6.76100
C          3.81300       -0.68000        7.60400
H          4.35300        0.05600        7.78000
C          1.96600        2.75700        6.73700
H          2.48200        3.58200        6.61000
C          2.37200        1.81400        5.63000
H          3.31100        1.62700        5.69700
H          2.18900        2.22300        4.77900
H          1.87500        0.99800        5.70500
C          0.48700        3.14200        6.64000
H         -0.03100        2.36900        6.40800
H          0.37500        3.81700        5.96700
H          0.18900        3.48500        7.48700
C          4.50300        3.94400        8.63000
C          4.90400        5.21500        9.00700
H          4.33800        5.74200        9.52400
C          6.14600        5.71100        8.62300
H          6.41400        6.55900        8.89400
C          6.97500        4.94400        7.84400
H          7.81400        5.26400        7.59900
C          6.56900        3.72000        7.43100
H          7.12900        3.20800        6.89100
C          5.32600        3.21000        7.80000
H          5.05200        2.37900        7.48900
C          1.91700        4.52600        9.77700
C          1.32500        4.48900       11.02200
H          1.51200        3.78800       11.60200
C          0.46000        5.48700       11.40800
H          0.09700        5.48100       12.26400
C          0.13000        6.49300       10.52900
H         -0.49200        7.13800       10.77100
C          0.72000        6.53800        9.30000
H          0.51800        7.23300        8.71300
C          1.60600        5.56900        8.92800
H          2.00900        5.61500        8.09100
P         -1.09300        8.31100       14.40800
F         -0.86900        8.72400       15.87800
F          0.11300        7.34700       14.47300
F         -1.30900        7.94500       12.90900
F         -2.21800        9.39200       14.22000
F         -0.05100        9.38600       13.94300
F         -2.11200        7.35300       14.88600
Pd         4.48700        3.21000       -0.65000
P          5.72400        4.17400        1.07700
P          5.54100        1.60300        0.48900
N          3.55600        4.81900       -1.69500
N          6.46000        2.67200        1.43100
C          3.57700        2.15100       -2.13300
C          3.24200        0.82500       -2.17100
H          3.50700        0.26600       -1.47700
C          2.51100        0.29700       -3.23400
H          2.31600       -0.61200       -3.25900
C          2.08100        1.10900       -4.23600
H          1.56500        0.75700       -4.92600
C          2.39900        2.42500       -4.24200
H          2.11600        2.97300       -4.93700
C          3.15800        2.95300       -3.18900
C          3.55900        4.41200       -3.14800
H          2.89800        4.94600       -3.63600
C          4.91800        4.59000       -3.78900
H          5.06900        5.52000       -3.96600
H          4.94900        4.09700       -4.61100
H          5.59700        4.26200       -3.19300
C          2.13600        4.92200       -1.24900
H          2.11000        5.17500       -0.32200
H          1.70300        4.07200       -1.35800
H          1.68100        5.58400       -1.77500
C          4.18300        6.16500       -1.49000
H          5.13300        6.09700       -1.61100
H          3.99500        6.47200       -0.60000
H          3.82300        6.78800       -2.12500
C          6.95000        5.38600        0.48700
C          7.65400        5.03100       -0.66000
H          7.58600        4.16700       -1.00000
C          8.45100        5.95500       -1.29200
H          8.93600        5.71100       -2.04800
C          8.53300        7.21000       -0.82400
H          9.06400        7.83300       -1.26500
C          7.84600        7.57700        0.29000
H          7.92100        8.44600        0.61500
C          7.03200        6.66600        0.94900
H          6.54600        6.92800        1.69700
C          4.94100        4.84100        2.55500
C          5.62000        5.41200        3.62700
H          6.54300        5.51100        3.57800
C          4.95700        5.83100        4.75300
H          5.41800        6.18800        5.47900
C          3.57000        5.70700        4.77700
H          3.09700        5.99800        5.52400
C          2.89600        5.17100        3.73000
H          1.96900        5.11400        3.75900
C          3.56100        4.71800        2.64600
H          3.08800        4.32000        1.95200
C          7.45300        2.25600        2.47100
H          7.73200        1.34200        2.24600
C          8.69300        3.11300        2.43100
H          9.15400        2.97100        1.60100
H          9.26900        2.87800        3.16100
H          8.44400        4.03700        2.50300
C          6.82900        2.19800        3.87400
H          6.75500        3.08900        4.22800
H          7.38500        1.67000        4.45100
H          5.95600        1.80200        3.82100
C          4.48600        0.56700        1.55000
C          5.01300       -0.39800        2.37300
H          5.92700       -0.56900        2.34600
C          4.22700       -1.10700        3.22100
H          4.60800       -1.74400        3.78100
C          2.88900       -0.88900        3.25500
H          2.35300       -1.38600        3.82800
C          2.31300        0.08200        2.42700
H          1.39800        0.24300        2.45600
C          3.11500        0.80000        1.57100
H          2.74300        1.43700        1.00700
C          6.72300        0.47400       -0.27900
C          7.98800        0.93400       -0.64300
H          8.23900        1.80800       -0.45100
C          8.86100        0.09900       -1.27900
H          9.70600        0.40600       -1.51600
C          8.49200       -1.20200       -1.57300
H          9.09200       -1.76700       -2.00700
C          7.28500       -1.65400       -1.23900
H          7.04500       -2.52400       -1.46200
C          6.37800       -0.84500       -0.56600
H          5.54900       -1.18100       -0.30700
P         -0.56300        7.33100        5.16900
F         -1.31400        7.55300        6.50700
F          0.66400        6.87000        5.99700
F          0.15300        7.03100        3.87200
F         -1.85600        7.68700        4.38100
F         -1.05400        5.83100        5.19400
F         -0.13600        8.78400        5.10300
