93
C:\Users\Javier\OneDrive - Universitat de Barcelona\Tesi\4 - Contribucions\Treballs\3-PhD\chapter_1\cif\pnp\UZEVEC.pnp.pdb
Pd         5.25700       18.24800       13.53000
Cl         5.26200       19.83300       15.27000
P          5.33000       16.46800       12.22800
N          5.25700       15.35900       13.53000
N          5.25700        6.80300       13.53000
N          5.42600        7.45400        9.98100
C          5.25700       13.92100       13.53000
C          5.26300        8.89500       12.34300
H          5.26100        9.35000       11.50900
C          4.68200       11.83300       12.49100
H          4.28600       11.36300       11.76600
C          5.29600        6.73500       11.11300
C          5.40700        6.80900        8.82000
H          5.49200        7.31600        8.02200
C          5.27600        7.50600       12.38300
C          5.25700       11.11500       13.53000
C          3.93000       16.24400       11.10700
C          4.67000       13.21800       12.48500
H          4.26300       13.68600       11.76600
C          5.25700        9.61600       13.53000
C          6.84600       16.17900       11.33300
C          5.26600        5.43600        8.71000
H          5.24900        5.01500        7.85800
C          2.69000       16.72400       11.54200
H          2.62000       17.17200       12.37700
C          5.15400        4.69500        9.86800
H          5.06400        3.75000        9.82800
C          5.17300        5.34700       11.08900
H          5.10300        4.85600       11.89900
C          4.02300       15.63000        9.87100
H          4.86700       15.32800        9.55800
C          7.11200       16.92000       10.18500
H          6.45500       17.52100        9.85200
C          7.83400       15.32800       11.82300
H          7.68900       14.82400       12.61500
C          8.31700       16.79500        9.52100
H          8.47900       17.30400        8.73700
C          9.03200       15.23200       11.13800
H          9.70600       14.65400       11.47500
C          1.67100       15.91200        9.52700
H          0.89800       15.78900        8.98700
C          1.56400       16.54900       10.75400
H          0.72000       16.86400       11.05100
C          9.28400       15.93300        9.99000
H         10.10600       15.83000        9.52900
C          2.89500       15.45500        9.08800
H          2.96600       15.01900        8.24800
Cl         8.42900       22.08100       12.63800
Cl         8.86000       19.19900       12.53800
Cl         9.15000       20.61700       15.03600
C          8.26100       20.54900       13.51900
H          7.29300       20.39700       13.71900
P          5.18300       16.46800       14.83100
N          5.08700        7.45400       17.07800
C          5.25000        8.89500       14.71700
H          5.25200        9.35000       15.55000
C          5.83100       11.83300       14.56900
H          6.22700       11.36300       15.29400
C          5.21700        6.73500       15.94700
C          5.10600        6.80900       18.24000
H          5.02100        7.31600       19.03700
C          5.23700        7.50600       14.67700
C          6.58300       16.24400       15.95300
C          5.84300       13.21800       14.57400
H          6.25000       13.68600       15.29400
C          3.66700       16.17900       15.72700
C          5.24700        5.43600       18.35000
H          5.26400        5.01500       19.20200
C          7.82300       16.72400       15.51800
H          7.89300       17.17200       14.68300
C          5.35900        4.69500       17.19200
H          5.44900        3.75000       17.23200
C          5.34000        5.34700       15.97100
H          5.41000        4.85600       15.16100
C          6.49000       15.63000       17.18800
H          5.64600       15.32800       17.50200
C          3.40100       16.92000       16.87500
H          4.05800       17.52100       17.20800
C          2.67900       15.32800       15.23600
H          2.82500       14.82400       14.44500
C          2.19700       16.79500       17.53800
H          2.03400       17.30400       18.32300
C          1.48200       15.23200       15.92200
H          0.80700       14.65400       15.58500
C          8.84200       15.91200       17.53300
H          9.61500       15.78900       18.07200
C          8.94900       16.54900       16.30600
H          9.79300       16.86400       16.00900
C          1.22900       15.93300       17.06900
H          0.40700       15.83000       17.53100
C          7.61800       15.45500       17.97100
H          7.54700       15.01900       18.81200
Cl         5.25100       19.83300       11.79000
