89
C:\Users\Javier\OneDrive - Universitat de Barcelona\Tesi\4 - Contribucions\Treballs\3-PhD\chapter_1\cif\pnp\VARNUA.pnp.pdb
C          3.66100        7.50800        2.40000
C          3.23800        8.51100        3.30800
C          2.32100        9.47700        2.92100
C          1.78700        9.51600        1.61100
C          2.26400        8.55500        0.71200
C          3.16600        7.53900        1.09100
C          4.62700        6.46000        2.87600
H          5.25000        6.89100        3.49600
C          3.81500        5.42500        3.67500
H          4.40400        4.74000        4.00200
H          3.15200        5.02900        3.10400
H          3.38400        5.85700        4.41600
C          5.44500        5.81400        1.77000
H          6.04400        5.16600        2.15000
H          5.95400        6.48700        1.31200
H          4.85700        5.37900        1.14800
C          0.75600       10.52000        1.18600
H          0.54400       11.09500        1.92500
H         -0.03900       10.06100        0.90000
H          1.10000       11.04400        0.46000
C          3.09700       13.00600        1.92900
C          2.62500       13.77900        0.89600
H          3.04700       13.74300        0.06800
C          1.52800       14.61600        1.06900
H          1.22000       15.13800        0.36300
C          0.90500       14.66700        2.28100
H          0.16800       15.21900        2.39800
C          1.36100       13.90700        3.32800
H          0.92800       13.94200        4.15100
C          2.46600       13.09200        3.15700
H          2.78900       12.59700        3.87600
C          5.60300       12.44700        3.03600
C          5.97400       13.78500        3.04700
H          5.66900       14.35200        2.37800
C          6.78600       14.27500        4.03300
H          7.02900       15.17300        4.02500
C          7.24500       13.45500        5.03500
H          7.80900       13.79100        5.69300
C          6.86700       12.14200        5.05800
H          7.16100       11.59000        5.74600
C          6.05100       11.63000        4.06600
H          5.80300       10.73300        4.08800
C          6.17300       13.00000       -0.16000
C          7.47700       12.75000        0.21200
H          7.68800       11.97600        0.68100
C          8.47100       13.65200       -0.11500
H          9.35600       13.47300        0.11500
C          8.15900       14.81100       -0.77700
H          8.82600       15.42700       -0.98200
C          6.86800       15.05400       -1.13500
H          6.66200       15.83800       -1.59100
C          5.86300       14.16300       -0.83600
H          4.98800       14.34300       -1.08800
C          6.16500        9.81900       -1.36400
C          7.01000       10.56400       -2.17400
H          6.91400       11.48900       -2.21000
C          7.99300        9.94900       -2.92900
H          8.58700       10.45800       -3.42900
C          8.07500        8.57900       -2.92900
H          8.71200        8.15800       -3.46200
C          7.23500        7.83100       -2.15900
H          7.30100        6.90300       -2.16800
C          6.28700        8.44000       -1.36500
H          5.72900        7.92400       -0.83000
C          3.60000       10.76600       -1.86100
C          3.20800        9.61300       -2.53300
H          3.52200        8.78300       -2.25500
C          2.34300        9.70500       -3.61900
H          2.08900        8.93500       -4.07300
C          1.87000       10.92200       -4.01800
H          1.28100       10.98300       -4.73500
C          2.26400       12.03600       -3.36300
H          1.94500       12.86200       -3.64400
C          3.13900       11.98100       -2.27600
H          3.40300       12.75900       -1.83900
P          4.46600       11.83400        1.76300
P          4.75600       10.53600       -0.47200
Ru         4.02500        9.60300        1.50100
N          5.15200       12.04500        0.21200
Cl         6.36800        9.28600        1.87400
H          3.62600        8.49500        4.17700
H          2.12300       10.10700        3.57700
H          2.01700        8.52900       -0.10900
H          3.41400        6.91700        0.51100
F         -1.24400        4.21700       15.74800
F         -0.00200        5.68100       16.76800
F         -1.99300        6.20800       16.41900
F         -0.78000        6.01700       14.72600
B         -0.95700        5.49100       15.89000
