93
C:\Users\Javier\OneDrive - Universitat de Barcelona\Tesi\4 - Contribucions\Treballs\3-PhD\chapter_1\cif\pnp\VARNOU.pnp.pdb
Ru         3.14700        5.12200        3.77400
P          5.14700        4.04900        4.15900
Cl         3.75900        6.57100        5.56100
P          2.90600        3.44700        5.33900
N          4.53500        2.98500        5.33100
C          1.87800        2.01300        4.93100
N          3.80900        0.15700        6.62600
C          5.99000        2.99900        2.94800
C          4.77600        0.53300        5.80300
C          1.27900        6.28400        3.25300
C          5.30500        1.92600        6.02700
H          5.30200        2.11300        6.97900
H          6.22700        1.96200        5.72400
C          5.27900        2.45400        1.88000
H          4.38500        2.67800        1.76100
C          2.88900        3.38100        8.15700
H          3.59200        2.77500        8.11500
C          2.40800        7.00500        2.75900
C          7.21100        5.88000        4.13400
H          7.09700        5.88300        3.21200
C          2.01700        4.33400        2.01400
C          2.15500        1.28200        3.79300
H          2.90200        1.48600        3.27700
C          6.47500        5.01000        4.92500
C          2.35600        3.91000        6.99700
C          3.15000        5.05000        1.56800
C          7.32600        2.62400        3.11900
H          7.82100        2.97800        3.82200
C          1.06100        4.96300        2.84600
C         -0.16800        4.22500        3.28400
H         -0.16000        3.34100        2.91100
H         -0.94800        4.69500        2.97800
H         -0.18300        4.17000        4.24200
C          1.31500        4.80800        7.08400
H          0.97000        5.18800        6.31000
C          5.89000        1.58300        0.99700
H          5.41200        1.24700        0.27200
C          0.77800        5.15000        8.31400
H          0.05700        5.73500        8.36400
C          3.34400        6.42300        1.90700
C          4.53000        7.14400        1.29800
H          5.28100        6.51400        1.29200
C          7.91000        1.72700        2.24700
H          8.79400        1.46800        2.37500
C          2.36600        3.76100        9.38800
H          2.73900        3.42300       10.17100
C          1.31800        4.61900        9.46000
H          0.96400        4.85000       10.28900
C          0.21900       -0.07000        4.17500
H         -0.34400       -0.76200        3.91400
C          7.19600        1.21400        1.18800
H          7.60000        0.61500        0.60100
C          0.76600        1.68100        5.70100
H          0.57300        2.16100        6.47400
C          6.65600        5.02200        6.29400
H          6.15400        4.45300        6.83300
C          8.11900        6.75000        4.72900
H          8.60000        7.35000        4.20400
C          8.30800        6.72400        6.09100
H          8.93300        7.28900        6.48200
C          3.31000       -1.07200        6.44200
H          2.61700       -1.35100        6.99600
C          7.58000        5.87600        6.86700
H          7.70700        5.87200        7.78900
C          3.75800       -1.93600        5.49100
H          3.38000       -2.78200        5.40600
C          1.31400        0.23800        3.41700
H          1.49800       -0.25300        2.64900
C          5.29100       -0.27800        4.80800
H          5.97300        0.02400        4.25200
C          4.76800       -1.54500        4.66100
H          5.09700       -2.12000        4.01000
C         -0.05300        0.63400        5.31000
H         -0.79300        0.40900        5.82700
C          4.96800        8.35500        2.08500
H          5.72600        8.76000        1.65500
H          5.21000        8.08800        2.97500
H          4.24900        8.98900        2.12500
C          4.21100        7.47800       -0.14900
H          4.96000        7.92700       -0.54700
H          3.44000        8.04800       -0.18500
H          4.03100        6.66700       -0.63200
H          2.48700        7.92500        3.08500
H          3.80300        4.65400        0.99500
H          0.65800        6.71700        3.80400
H          1.83100        3.39200        1.80600
P          2.63300        4.23300       13.88400
F          3.07800        3.69400       15.30100
F          2.20300        4.76500       12.49300
F          3.60100        3.28400       13.18600
F          1.65400        5.16500       14.60700
F          1.68300        3.04000       13.80100
F          3.65900        5.35800       14.05700
