165
C:\Users\Javier\OneDrive - Universitat de Barcelona\Tesi\4 - Contribucions\Treballs\3-PhD\chapter_1\cif\pnp\WOCVOB.pnp.pdb
Pd         0.13800        1.15600       12.91800
N          1.92300        3.31100       12.28700
H          2.53000        3.87700       12.06400
O          0.15700       -0.20800       14.44900
O         -1.30600        0.07500       11.89500
P          0.63600        2.70900       11.37200
P          1.70600        2.50700       13.75300
C          0.09700       -2.32100       15.42300
H          1.05400       -2.40800       15.40700
H         -0.30400       -3.18200       15.28300
H         -0.17900       -1.97400       16.27400
C         -0.33900       -1.38100       14.33300
C         -1.21300       -1.82400       13.34200
H         -1.49700       -2.70700       13.40200
C         -1.70800       -1.07700       12.26600
C         -2.80900       -1.67600       11.43800
H         -3.55500       -1.88900       12.00400
H         -2.49100       -2.47700       11.01400
H         -3.08400       -1.04600       10.76800
C          1.26300        3.70600       15.01800
H          1.90900        4.41500       15.02600
H          1.24800        3.27700       15.87500
H          0.39400        4.06700       14.82500
C          3.26400        1.73800       14.35300
C          3.70000        0.61900       13.41800
H          3.94900        0.98900       12.56800
H          2.97600        0.00200       13.29800
H          4.45300        0.15900       13.79800
C          2.99500        1.15500       15.75400
H          3.75900        0.65500       16.04500
H          2.22900        0.57900       15.71800
H          2.82800        1.87200       16.37100
C          4.36400        2.81200       14.40900
H          5.18300        2.41500       14.71300
H          4.10100        3.50900       15.01500
H          4.49300        3.18400       13.53300
C         -0.63100        4.04000       11.10800
C         -0.88500        4.70900       12.47200
H         -1.59400        5.35000       12.38700
H         -0.08500        5.15300       12.76400
H         -1.13100        4.04100       13.11600
C         -0.15000        5.11200       10.12100
H         -0.76100        5.85300       10.13300
H         -0.11500        4.74000        9.23700
H          0.72500        5.41200       10.37700
C         -1.95300        3.39500       10.62500
H         -2.15800        2.63600       11.17400
H         -1.85600        3.11300        9.71200
H         -2.66400        4.03800       10.68800
C          1.36200        2.04900        9.79100
C          2.11100        0.76200       10.14700
H          2.46500        0.36500        9.34600
H          1.50600        0.14700       10.56700
H          2.83000        0.96600       10.74800
C          0.26100        1.69100        8.79100
H         -0.19200        2.49100        8.51300
H         -0.36700        1.09600        9.20700
H          0.65000        1.26200        8.02600
C          2.36000        3.04200        9.17800
H          2.76500        2.65000        8.40000
H          3.04200        3.25000        9.82200
H          1.89900        3.84600        8.92800
Pd         2.03800       21.60100        6.59800
N          0.54100       19.17000        6.88400
H          0.13500       18.41400        6.92200
O          3.68000       22.41300        7.53700
O          1.92600       23.17400        5.28500
P          0.28100       20.45600        5.84200
P          1.81100       19.74500        7.84000
C          5.37900       23.97900        8.02400
H          5.04700       24.47300        8.77700
H          5.95400       24.54200        7.49900
H          5.87400       23.21800        8.33300
C          4.22100       23.51600        7.17700
C          3.82300       24.33500        6.13600
H          4.33500       25.09700        5.99800
C          2.74900       24.15700        5.27300
C          2.46300       25.19500        4.22200
H          2.62000       24.82000        3.35200
H          3.04000       25.95100        4.35300
H          1.54700       25.47500        4.28900
C         -1.32900       21.20700        6.16300
H         -2.00100       20.52100        6.19900
H         -1.54000       21.82600        5.46000
H         -1.30400       21.67400        7.00200
C          0.19100       19.91800        4.08400
C          0.14300       21.19900        3.22800
H          0.91900       21.73500        3.41000
H         -0.64800       21.69700        3.44200
H          0.12900       20.96200        2.29800
C         -1.05600       19.06500        3.84100
H         -1.08000       18.78600        2.92300
H         -1.84100       19.58100        4.03900
H         -1.03000       18.29000        4.41000
C          1.42800       19.10800        3.72400
H          1.46400       18.98300        2.77200
H          1.38700       18.25200        4.15600
H          2.21400       19.57600        4.01500
C          3.11500       18.53500        7.86700
C          4.37200       19.17800        8.44600
H          4.25900       19.30300        9.39200
H          4.51900       20.02700        8.02600
H          5.12600       18.60600        8.28700
C          3.36000       18.15500        6.41200
H          4.08800       17.53100        6.36200
H          3.57900       18.94300        5.90800
H          2.56800       17.75400        6.04800
C          2.75900       17.25600        8.64800
H          1.97400       16.85700        8.26800
H          2.59100       17.47900        9.56700
H          3.49000       16.63700        8.59800
C          1.04900       20.14100        9.55700
C          2.17800       20.57300       10.51300
H          1.79800       20.99800       11.28400
H          2.76200       21.18700       10.06300
H          2.67600       19.79900       10.78700
C          0.28300       18.92900       10.12900
H          0.90100       18.21700       10.31400
H         -0.36700       18.62700        9.48900
H         -0.16200       19.18500       10.94000
C          0.06800       21.28900        9.40000
H         -0.69500       20.99300        8.90000
H          0.49400       22.01300        8.93400
H         -0.21300       21.59100       10.26800
C          3.35500       18.60100        7.67000
C          4.47300       19.15400        8.54500
H          5.29900       18.70800        8.32800
H          4.26500       19.00200        9.47000
H          4.57000       20.09600        8.38900
C          3.79700       18.62300        6.21100
H          4.03000       19.51900        5.96000
H          3.07900       18.30900        5.65500
H          4.56000       18.05100        6.10000
C          3.02400       17.15400        8.06900
H          3.77900       16.58900        7.88200
H          2.26600       16.84800        7.56600
H          2.82300       17.11800        9.00700
C          1.25300       19.93700        9.54900
C          2.29000       20.70800       10.39000
H          2.61800       21.45500        9.88500
H          3.01900       20.12400       10.61100
H          1.87600       21.02400       11.19600
C          0.89600       18.58900       10.21600
H          0.50400       18.75300       11.07700
H          1.69200       18.06300       10.32200
H          0.26900       18.11500        9.66500
C         -0.01500       20.76300        9.45300
H         -0.65400       20.30500        8.90100
H          0.18800       21.61700        9.06500
H         -0.38300       20.88800       10.33100
B          7.60600        6.45900        0.02000
F          7.97800        6.02100        1.26600
F          6.25900        6.74400       -0.00300
F          8.32800        7.57200       -0.33300
F          7.83500        5.42800       -0.90200
B         -1.29600       15.99700        6.63800
F         -1.41600       17.18400        7.34100
F         -1.67500       14.95200        7.44500
F         -2.10100       16.04900        5.53800
F          0.03400       15.85600        6.26900
B         -1.33200       16.02500        6.71000
F         -1.63800       17.37100        6.65900
F         -2.28400       15.37400        7.45800
F         -1.24500       15.52300        5.45400
F         -0.10800       15.93700        7.35700
