124
C:\Users\Javier\OneDrive - Universitat de Barcelona\Tesi\4 - Contribucions\Treballs\3-PhD\chapter_1\cif\pnp\XABZOQ.pnp.pdb
Pd         7.56000        0.74500        4.96500
P          6.31200        2.56900        4.55500
N          7.56000        3.62000        4.96500
C          7.56000        5.09200        4.96500
N          8.91600       -0.80500        5.52700
H          8.40200       -1.48200        5.87600
H          9.27500       -1.12900        4.74400
C          4.93100        2.94200        5.63200
C          4.15200        4.06000        5.43800
H          4.25800        4.57200        4.64500
C          3.20700        4.45600        6.39300
H          2.66300        5.22200        6.25200
C          3.08200        3.70500        7.54100
H          2.47000        3.97900        8.21200
C          3.81500        2.58700        7.72700
H          3.68300        2.06900        8.51400
C          4.75200        2.18500        6.79800
H          5.27000        1.40200        6.94500
C          5.81700        2.90500        2.86000
C          4.52200        2.68600        2.42300
H          3.84600        2.43400        3.04000
C          4.22100        2.83700        1.08800
H          3.33200        2.68900        0.78600
C          5.18900        3.19700        0.19500
H          4.96700        3.30100       -0.72300
C          6.48500        3.40900        0.61200
H          7.15200        3.65600       -0.01800
C          6.81400        3.26600        1.94400
H          7.70600        3.41100        2.23600
C         10.02700       -0.62800        6.44200
C          9.80100       -0.62800        7.80900
H          8.91400       -0.66900        8.14400
C         10.86400       -0.57100        8.67300
H         10.69500       -0.58000        9.60600
C         12.16400       -0.49900        8.23400
C         13.30200       -0.50100        9.20300
H         13.37600        0.38100        9.62200
H         14.13400       -0.70900        8.73000
H         13.14100       -1.17800        9.89400
C         12.36500       -0.44500        6.87900
H         13.24900       -0.35000        6.54400
C         11.30500       -0.52900        5.98600
H         11.47400       -0.51600        5.05000
S          5.66300       -2.56600        7.59300
F          6.33100       -4.08300        5.61000
O          5.32400       -2.83200        8.95300
F          4.95200       -4.97800        6.94900
O          6.92700       -1.91600        7.40400
F          6.97600       -4.81700        7.53700
O          4.62100       -2.05700        6.77600
C          6.00500       -4.18300        6.89900
C          0.45100       -6.07200        8.75200
H          0.44900       -6.68800        9.47500
C         -0.63500       -6.01500        7.88600
H         -1.37900       -6.59100        8.01700
C         -0.63300       -5.11400        6.82600
H         -1.37500       -5.07500        6.23600
C          0.45600       -4.27200        6.63300
H          0.45800       -3.65700        5.91000
C          1.54200       -4.32900        7.49900
H          2.28600       -3.75400        7.36800
C          1.53900       -5.23000        8.55700
C          2.57300       -5.23000        9.48100
H          2.41400       -5.92800       10.15000
H          2.61600       -4.35600        9.92400
H          3.42000       -5.40500        9.02200
H          6.68200        5.41800        4.67700
H          8.24800        5.41800        4.34900
H          7.74900        5.41800        5.86800
C          1.87000       -5.63200        9.72700
H          2.33000       -5.86900       10.52400
C          2.35300       -4.60100        8.92700
H          3.14100       -4.13500        9.17700
C          1.68000       -4.25400        7.76100
H          2.01000       -3.55000        7.21500
C          0.52600       -4.93600        7.39600
C          0.04500       -5.96600        8.19400
H         -0.74500       -6.43300        7.94400
C          0.71600       -6.31400        9.36000
H          0.38800       -7.01800        9.90600
C         -0.14800       -4.52900        6.27800
H         -0.96300       -5.07000        6.17200
H          0.41800       -4.64000        5.48900
H         -0.40100       -3.58600        6.37100
P          8.80700        2.56900        5.37500
N          6.20300       -0.80500        4.40300
H          6.71800       -1.48200        4.05300
H          5.84400       -1.12900        5.18500
C          5.09200       -0.62800        3.48700
C          5.31800       -0.62800        2.12100
H          6.20500       -0.66900        1.78500
C          4.25500       -0.57100        1.25700
H          4.42400       -0.58000        0.32400
C          2.95600       -0.49900        1.69600
C          1.81800       -0.50100        0.72700
H          1.74400        0.38100        0.30800
H          0.98600       -0.70900        1.20000
H          1.97800       -1.17800        0.03600
C          2.75500       -0.44500        3.05000
H          1.87000       -0.35000        3.38600
C          3.81400       -0.52900        3.94400
H          3.64500       -0.51600        4.87900
C         10.18800        2.94200        4.29800
C         10.96700        4.06000        4.49200
H         10.86200        4.57200        5.28500
C         11.91300        4.45600        3.53700
H         12.45600        5.22200        3.67800
C         12.03700        3.70500        2.38900
H         12.65000        3.97900        1.71800
C         11.30500        2.58700        2.20200
H         11.43600        2.06900        1.41600
C         10.36700        2.18500        3.13200
H          9.84900        1.40200        2.98500
C          9.30300        2.90500        7.07000
C         10.59800        2.68600        7.50700
H         11.27300        2.43400        6.88900
C         10.89900        2.83700        8.84100
H         11.78700        2.68900        9.14300
C          9.93100        3.19700        9.73500
H         10.15200        3.30100       10.65300
C          8.63400        3.40900        9.31800
H          7.96700        3.65600        9.94800
C          8.30600        3.26600        7.98600
H          7.41300        3.41100        7.69400
