83
C:\Users\Javier\OneDrive - Universitat de Barcelona\Tesi\4 - Contribucions\Treballs\3-PhD\chapter_1\cif\pnp\XUWFAW.pnp.pdb
Rh         5.35600        7.67500        0.39300
Cl         7.02100        9.34400        0.09600
P          3.87000        9.41600        0.57900
P          4.50000        8.22700       -1.67300
N          3.61400        9.52500       -1.07600
C          2.68600       10.39300       -1.81600
H          2.75800       10.22900       -2.75800
H          1.79500       10.20900       -1.51300
H          2.91000       11.30600       -1.61600
C          4.65500        5.69900        0.99700
C          5.86700        5.52400        0.24300
C          6.87500        6.17900        0.92000
C          6.33600        6.76600        2.15100
C          4.94600        6.41100        2.19600
C          3.40300        4.92900        0.71700
H          3.44200        4.07500        1.15300
H          2.64700        5.42200        1.04600
H          3.31200        4.80000       -0.23000
C          6.03600        4.61700       -0.94500
H          6.22600        3.72400       -0.64900
H          5.24100        4.62300       -1.48300
H          6.77300        4.95600       -1.46000
C          8.34600        6.18400        0.58000
H          8.45300        6.20000       -0.37400
H          8.80400        5.42000        0.93700
H          8.72100        6.98500        0.95400
C          7.13700        7.49500        3.20200
H          7.45900        6.87900        3.86500
H          7.88200        7.92500        2.77500
H          6.58500        8.15800        3.62400
C          4.04500        6.67200        3.34700
H          4.09200        5.93800        3.96400
H          4.30800        7.48000        3.79100
H          3.14500        6.76200        3.02500
C          4.43500       10.98800        1.25300
C          4.22300       12.20300        0.70200
H          3.81100       12.26500       -0.16200
C          4.60100       13.37500        1.37200
H          4.58300       14.21400        0.90500
C          5.17100       13.31600        2.58000
H          5.39500       14.12600        3.04400
C          5.41500       12.09900        3.16800
H          5.83700       12.06800        4.03000
C          5.06600       10.95800        2.51000
H          5.24700       10.11000        2.92200
C          2.23700        9.22700        1.34700
C          1.61200        7.98600        1.22700
H          2.06000        7.27200        0.77000
C          0.35200        7.78300        1.75000
H         -0.11600        6.96800        1.55000
C         -0.26100        8.78400        2.45500
H         -1.13300        8.61000        2.81700
C          0.35300       10.01800        2.51600
H         -0.05900       10.64400        3.11600
C          1.58200       10.23900        1.98900
H          1.98700       11.10700        2.06200
C          5.57700        8.69400       -3.05000
C          5.13000        9.45500       -4.08700
H          4.21200        9.73500       -4.11700
C          5.98300        9.83000       -5.10500
H          5.69400       10.39700       -5.82300
C          7.27400        9.39300       -5.12500
H          7.86200        9.54800       -5.86800
C          7.73000        8.62900       -4.09800
H          8.64700        8.35800       -4.00900
C          6.89900        8.28000       -3.08400
H          7.24100        7.73200       -2.37400
C          3.33300        7.08100       -2.46500
C          3.76800        6.13800       -3.36200
H          4.68700        6.17300       -3.63700
C          2.93400        5.17600       -3.85100
H          3.28000        4.55000       -4.49300
C          1.63200        5.12300       -3.38700
H          1.05200        4.42800       -3.70300
C          1.14100        6.03900       -2.54800
H          0.23600        5.97100       -2.23300
C          1.98900        7.04200       -2.08300
H          1.63500        7.71700       -1.49800
B          3.40000        2.58700        3.76500
F          2.38400        3.15400        3.22900
F          3.73600        1.55900        3.07800
F          3.09800        2.22400        4.95600
F          4.37500        3.41900        3.79700
