70
C:\Users\Javier\OneDrive - Universitat de Barcelona\Tesi\4 - Contribucions\Treballs\3-PhD\chapter_1\cif\pnp\YOKYEC.pnp.pdb
Pd        -0.72500        0.13400       18.32600
Cl        -2.31900       -1.58400       17.93900
Cl        -2.09100        1.91900       17.58900
P          0.92100       -1.19200       18.97800
P          0.99400        1.38900       18.92800
N          1.99800        0.06500       19.36300
C          1.64300       -2.20800       17.67100
C          0.96700       -3.42000       17.36900
C          1.48700       -4.18700       16.31000
C          2.54600       -3.81300       15.59600
C          3.17800       -2.61200       15.91800
C          2.73300       -1.80900       16.90700
C          0.63800       -2.29100       20.34700
C         -0.46600       -2.08200       21.20200
C         -0.70800       -2.95300       22.26600
C          0.15700       -3.97900       22.53000
C          1.27000       -4.19800       21.69800
C          1.52100       -3.35900       20.64500
C          0.67500        2.47100       20.34300
C          1.43200        3.59000       20.60700
C          1.21600        4.39500       21.71000
C          0.20900        4.04800       22.57000
C         -0.57500        2.94400       22.35100
C         -0.37100        2.17000       21.17900
C          1.74300        2.40200       17.69400
C          1.16600        3.62800       17.31700
C          1.64600        4.42700       16.37400
C          2.76600        4.02600       15.69800
C          3.40700        2.85800       15.96600
C          2.90600        2.02700       16.97100
C          3.35100        0.01400       19.96600
C          3.96200        1.37300       20.22200
C          3.36300       -0.72900       21.30400
C          2.48600       -0.47400       22.29900
C          2.52400       -1.11400       23.47900
C          3.42700       -2.08700       23.68100
C          4.29900       -2.45400       22.65900
C          4.28400       -1.74200       21.52500
H          0.34500       -3.87900       17.70200
H          0.96700       -5.17800       16.27400
H          2.99500       -4.32400       15.05100
H          3.76300       -2.24600       15.51500
H          3.63800       -0.89500       17.09800
H         -1.06400       -1.29500       21.08800
H         -1.35700       -2.42900       22.62200
H         -0.03200       -4.58800       23.45200
H          1.70400       -4.89000       21.97600
H          2.49900       -3.31200       19.97600
H          1.80900        3.46200       19.90600
H          1.91600        4.95600       21.73300
H         -0.05200        4.43500       23.48300
H         -1.12300        2.81200       22.78400
H         -1.09800        1.45600       20.83000
H          0.19200        3.58800       17.77100
H          1.45300        5.29900       16.21000
H          2.86300        4.41500       14.86700
H          4.26600        2.42700       15.40600
H          3.47400        1.04700       17.34200
H          3.83200       -0.31800       19.16500
H          2.25300        0.45200       22.27200
H          1.80200       -0.59300       23.97200
H          3.89700       -2.11600       24.84000
H          5.20500       -3.10200       23.11300
H          4.86800       -1.99300       20.72400
H          5.15800        0.98900       20.25700
H          3.62100        1.83400       21.18100
H          3.95800        1.83600       19.44600
Cl        -1.20000       -0.09800       24.33200
Cl        -3.66700        1.27500       24.12200
C         -2.67500        0.33600       25.16700
