98
C:\Users\Javier\OneDrive - Universitat de Barcelona\Tesi\4 - Contribucions\Treballs\3-PhD\chapter_1\cif\pc3p\ABEYEL.pc3p.pdb
Ru         7.26400        3.55300        4.27900
P          8.92200        4.99000        4.95200
P          8.71500        1.78400        4.14200
N          3.95300        2.72800        8.18200
C          7.10200        2.89600        6.21100
C          6.13400        1.91100        7.02000
C          7.44200        2.53600        7.42900
C          8.32600        2.44100        8.59800
C          9.09600        3.51900        9.06000
C          9.89200        3.38700       10.20000
C          9.94800        2.17100       10.88500
C          9.19200        1.09200       10.43900
C          8.37800        1.22100        9.30700
C          4.92100        2.38500        7.65800
C         10.50900        4.31600        5.66000
C         11.08000        3.03600        5.01400
C         10.18800        1.81800        5.25500
C          8.49100        6.15100        6.33100
C          7.23800        6.07000        6.95400
C          6.93500        6.86200        8.06200
C          7.88200        7.74700        8.56600
C          9.13000        7.85100        7.95400
C          9.43200        7.05700        6.84100
C          9.59900        6.18100        3.70500
C          9.10400        7.48900        3.59600
C          9.59600        8.36500        2.62200
C         10.62200        7.96300        1.77300
C         11.13400        6.68200        1.87300
C         10.62700        5.78600        2.82300
C          8.02400        0.10900        4.53800
C          8.15000       -0.41800        5.83500
C          7.52600       -1.63700        6.17100
C          6.80200       -2.33400        5.22500
C          6.69700       -1.84400        3.93400
C          7.31300       -0.63300        3.59200
C          9.59600        1.47000        2.54800
C         10.22600        0.24100        2.28900
C         11.01100        0.08100        1.14700
C         11.16400        1.12600        0.24700
C         10.53600        2.35200        0.47800
C          9.75100        2.51500        1.63600
C          6.14400        3.11000        2.34500
C          6.52200        4.49000        2.31900
C          5.85100        5.14100        3.42000
C          5.07600        4.16800        4.11800
C          5.26500        2.89600        3.47200
C          6.40000        2.11600        1.24500
C          7.24900        5.21000        1.20500
C          5.73700        6.63300        3.62200
C          4.05500        4.48600        5.17700
C          4.48200        1.64400        3.78500
H          6.15600        0.94500        6.76100
H          9.07600        4.34500        8.59200
H         10.39800        4.12800       10.51200
H         10.49900        2.08100       11.65400
H          9.22900        0.26400       10.90300
H          7.85500        0.48300        9.01600
H         11.19800        5.02400        5.59600
H         10.36300        4.13400        6.62200
H         11.17700        3.18000        4.03800
H         11.98000        2.85900        5.38500
H          9.88200        1.82300        6.19500
H         10.72000        0.99400        5.11400
H          6.58600        5.46800        6.61800
H          6.08000        6.79500        8.47200
H          7.67900        8.27900        9.32500
H          9.77500        8.46000        8.29300
H         10.28400        7.13500        6.42600
H          8.42500        7.78400        4.19100
H          9.22700        9.23700        2.54000
H         10.96900        8.56700        1.12600
H         11.83600        6.40800        1.29300
H         10.97700        4.90300        2.87300
H          8.65900        0.04900        6.48600
H          7.60500       -1.98000        7.05400
H          6.37500       -3.15100        5.46000
H          6.21000       -2.32900        3.27900
H          7.24400       -0.31000        2.70100
H         10.11800       -0.48300        2.89500
H         11.44400       -0.75000        0.98400
H         11.69800        1.00800       -0.53000
H         10.63700        3.06700       -0.13900
H          9.32300        3.34700        1.79900
H          6.04500        1.24000        1.50600
H          7.36400        2.04200        1.08800
H          5.95800        2.41500        0.42200
H          7.37900        6.15000        1.45200
H          6.72000        5.15900        0.38200
H          8.12100        4.78800        1.06000
H          6.37200        7.09200        3.03200
H          5.94100        6.85400        4.55400
H          4.82600        6.92200        3.40800
H          3.65600        3.65300        5.50600
H          3.35400        5.05600        4.79700
H          4.49000        4.95500        5.92000
H          4.79600        0.91100        3.21300
H          3.53000        1.80200        3.61800
H          4.61400        1.40100        4.72500
