108
C:\Users\Javier\OneDrive - Universitat de Barcelona\Tesi\4 - Contribucions\Treballs\3-PhD\chapter_1\cif\pc3p\ABEYIP.pc3p.pdb
Ru         2.82300        0.83100       18.60600
P          2.08500       -1.35300       18.32900
P          4.98400        0.11500       18.75400
O          2.53600       -0.82300       21.06800
N         -0.55300        0.71100       23.24200
C          2.72700        0.54200       20.68400
C          2.58600        1.33200       21.79600
C          2.04700        0.44900       22.94800
C          2.47000       -0.98100       22.51400
C          2.90800        2.71200       22.11500
C          4.18300        3.19000       21.87700
C          4.54700        4.48600       22.34700
C          3.62000        5.27300       23.03200
C          2.37300        4.78300       23.27500
C          2.03700        3.49400       22.83400
C          0.56000        0.61200       23.09600
C          3.78800       -1.30300       23.06500
C          1.56900       -2.07300       22.80700
C          3.14600       -2.78200       18.88200
C          4.63500       -2.69400       18.72700
C          5.29500       -1.54100       19.48800
C          0.51000       -1.84400       19.13500
C         -0.24700       -0.92400       19.82000
C         -1.44500       -1.25300       20.41900
C         -1.92000       -2.53800       20.36200
C         -1.11800       -3.51900       19.68600
C          0.02400       -3.14900       19.10000
C          1.70800       -1.88700       16.61600
C          0.42700       -1.93300       16.10500
C          0.17300       -2.29100       14.79800
C          1.22400       -2.61500       13.94600
C          2.49100       -2.59400       14.39200
C          2.70500       -2.21200       15.71400
C          5.93400       -0.11300       17.19800
C          5.29500       -0.12200       15.96900
C          5.94400       -0.41300       14.81700
C          7.25900       -0.66800       14.80200
C          7.94600       -0.68700       16.01000
C          7.29600       -0.39400       17.18800
C          6.19700        1.13500       19.68600
C          6.71000        2.30400       19.16400
C          7.63600        3.07000       19.81300
C          8.07100        2.68700       21.07300
C          7.59200        1.56300       21.64100
C          6.63900        0.78400       20.96800
C          2.09000        1.74200       16.62100
C          0.99900        1.78600       17.56800
C          1.37100        2.62800       18.64600
C          2.67800        3.10600       18.37700
C          3.12500        2.55600       17.11000
C          1.97700        1.24200       15.18400
C         -0.42000        1.33400       17.31500
C          0.48600        3.11800       19.71700
C          3.36300        4.28900       19.03300
C          4.29300        3.05000       16.31500
H          2.49300        0.68700       23.78600
H          4.79800        2.67100       21.41200
H          5.40600        4.80600       22.19600
H          3.85200        6.12700       23.32000
H          1.74800        5.29800       23.73300
H          1.19300        3.15700       23.03200
H          4.39700       -0.58500       22.87900
H          4.11400       -2.11200       22.66400
H          3.71700       -1.42300       24.01500
H          0.69900       -1.87400       22.45200
H          1.50700       -2.18900       23.75900
H          1.90200       -2.88000       22.40900
H          2.95900       -2.93700       19.82200
H          2.84900       -3.56900       18.40000
H          4.84200       -2.60100       17.78500
H          5.02600       -3.52800       19.03300
H          6.25200       -1.69500       19.51700
H          4.96900       -1.54300       20.40200
H          0.06000       -0.04700       19.88200
H         -1.93400       -0.60000       20.86300
H         -2.73500       -2.76700       20.74800
H         -1.39000       -4.40900       19.65800
H          0.51600       -3.79300       18.64400
H         -0.28800       -1.71800       16.65900
H         -0.70300       -2.31400       14.48300
H          1.04900       -2.85000       13.06300
H          3.20000       -2.82600       13.83900
H          3.58500       -2.17100       16.01200
H          4.38700        0.07900       15.93300
H          5.46700       -0.43700       14.02000
H          7.70300       -0.82900       14.00100
H          8.85100       -0.89900       16.02400
H          7.77300       -0.38500       17.98500
H          6.41200        2.58500       18.32900
H          7.97100        3.83900       19.41400
H          8.69500        3.20800       21.52800
H          7.89300        1.30300       22.48000
H          6.29600        0.02300       21.37800
H          1.18900        0.70200       15.09400
H          2.75200        0.72000       14.96500
H          1.91900        1.99400       14.58800
H         -0.44200        0.77100       16.53700
H         -0.98000        2.10000       17.17200
H         -0.73900        0.83900       18.07400
H          0.98900        3.67100       20.31900
H          0.12200        2.37000       20.19700
H         -0.22900        3.63000       19.33100
H          4.24600        4.38900       18.66800
H          3.42400        4.13800       19.98000
H          2.85400        5.08500       18.86600
H          4.85600        3.59100       16.87300
H          3.97700        3.57600       15.57500
H          4.79500        2.30200       15.98300
