122
C:\Users\Javier\OneDrive - Universitat de Barcelona\Tesi\4 - Contribucions\Treballs\3-PhD\chapter_1\cif\pc3p\ACIVEN.pc3p.pdb
Pd         5.42300        3.20500        3.78300
P          6.10000        5.20200        4.63900
P          6.37500        3.78300        1.80000
C          5.85800        6.62900        3.52600
H          4.90300        6.67400        3.26900
H          6.07600        7.46000        4.01800
C          6.70500        6.57300        2.26200
H          6.69100        7.45800        1.82200
H          7.64300        6.37300        2.51200
C          6.22000        5.52700        1.28400
H          6.71900        5.64300        0.43800
H          5.26500        5.70600        1.09000
C          7.84100        5.23400        5.12000
C          8.52800        6.44000        5.19700
H          8.07000        7.25800        5.04500
C          9.88500        6.44800        5.49500
H         10.35500        7.27300        5.54600
C         10.55600        5.25200        5.71700
H         11.48300        5.25800        5.92000
C          9.86900        4.04500        5.64100
H         10.32800        3.22700        5.79400
C          8.51100        4.03700        5.34200
H          8.04200        3.21300        5.29000
C          5.12900        5.63000        6.09900
C          5.65000        5.44100        7.37400
H          6.53400        5.11000        7.48300
C          4.87700        5.73700        8.49100
H          5.23400        5.60700        9.36400
C          3.58400        6.22000        8.33400
H          3.05700        6.42300        9.09800
C          3.06300        6.40900        7.06000
H          2.17800        6.73900        6.95000
C          3.83500        6.11400        5.94200
H          3.47800        6.24200        5.07300
C          5.64000        2.91300        0.39000
C          6.32300        1.91400       -0.29200
H          7.17900        1.63300        0.01100
C          5.75600        1.32600       -1.41600
H          6.22400        0.64400       -1.88100
C          4.50500        1.73800       -1.86000
H          4.11800        1.33600       -2.62700
C          3.82100        2.73800       -1.17800
H          2.96500        3.01900       -1.48200
C          4.38800        3.32500       -0.05300
H          3.92000        4.00800        0.41300
C          8.13200        3.36400        1.84300
C          9.07900        4.12500        1.16600
H          8.81000        4.89400        0.67600
C         10.42000        3.76000        1.20700
H         11.06800        4.27900        0.74300
C         10.81400        2.63600        1.92300
H         11.73100        2.38800        1.95100
C          9.86700        1.87600        2.59900
H         10.13700        1.10900        3.09000
C          8.52600        2.24000        2.55900
H          7.87900        1.72100        3.02000
N          4.76300        2.57200        5.67900
C          3.56300        2.94100        6.17100
H          2.95100        3.38500        5.59500
C          3.19100        2.69900        7.47800
C          4.07400        2.04900        8.31400
H          3.85200        1.89400        9.22400
C          5.29000        1.62800        7.80200
H          5.90200        1.14900        8.34800
C          5.60600        1.91200        6.49100
H          6.44600        1.63100        6.15200
C          1.87000        3.16200        8.01500
N          0.87300        3.24000        7.15200
H          0.07500        3.49700        7.42300
H          1.00600        3.03600        6.30600
O          1.77100        3.43300        9.22000
N          4.70200        1.34900        3.03100
C          3.54100        1.30000        2.34600
H          3.03600        2.10000        2.25300
C          3.05700        0.15100        1.78100
C          3.79700       -1.01400        1.93600
H          3.50100       -1.82600        1.53800
C          4.95500       -0.98500        2.66300
H          5.46200       -1.77800        2.79900
C          5.37400        0.21000        3.19200
H          6.17900        0.22500        3.69600
C          1.77200        0.10100        1.01400
N          1.12300        1.23500        0.79300
H          0.36600        1.22900        0.34300
H          1.45000        1.99500        1.09300
O          1.36100       -1.00300        0.61400
F         -0.45500        6.03000        2.62500
F         -0.25200        4.25000        3.74200
F          0.63100        6.03400        4.45900
C          0.35100        5.33100        3.38100
S          1.89600        4.95500        2.47700
O          2.67200        4.19500        3.43900
O          2.43900        6.23300        2.14600
O          1.45400        4.18000        1.35000
F         14.41600        9.16000        6.91500
F         13.05500        7.70500        6.23600
F         12.52300        8.72900        7.85800
C         13.23500        8.86400        6.54400
S         12.32300       10.15700        5.78600
O         12.41600       11.25200        6.63700
O         11.06500        9.64700        5.44700
O         13.14800       10.37900        4.66100
C         -1.46100        1.21200        5.57400
H         -1.17300        1.92100        6.18300
H         -1.71600        0.41900        6.08900
H         -2.23100        1.52500        5.05200
C         -0.35400        0.86900        4.65500
C         -0.68200       -0.20000        3.67200
H          0.09200       -0.35600        3.09000
H         -1.44900        0.08000        3.12800
H         -0.90100       -1.02700        4.15100
O          0.71700        1.38000        4.73600
C          5.18000        9.60400        8.26400
H          5.99800        9.30300        8.71300
H          4.40900        9.12900        8.63900
H          5.06800       10.56800        8.39700
C          5.28200        9.31000        6.78600
C          4.12100        9.69100        5.92100
H          4.31000        9.44400        4.99200
H          3.97200       10.65800        5.98000
H          3.31700        9.21900        6.22500
O          6.28200        8.79200        6.30500
