66
C:\Users\Javier\OneDrive - Universitat de Barcelona\Tesi\4 - Contribucions\Treballs\3-PhD\chapter_1\cif\pc3p\AGADOB.pc3p.pdb
C          6.02600        0.57800        7.64100
C          7.14600        0.72000        6.85000
H          7.29400        1.51600        6.39300
C          8.04700       -0.31700        6.73400
H          8.79600       -0.21600        6.19400
C          7.85200       -1.49300        7.40500
H          8.47600       -2.17800        7.33900
C          6.74300       -1.65000        8.16300
H          6.59900       -2.45700        8.60100
C          5.81000       -0.61800        8.29900
H          5.05300       -0.73500        8.82500
C          3.31000        1.31500        8.41400
C          2.68100        1.81400        9.55200
H          3.09800        2.46900       10.06300
C          1.44200        1.34000        9.92400
H          1.02600        1.68100       10.68300
C          0.83200        0.39500        9.20200
H         -0.01000        0.09600        9.46500
C          1.42600       -0.15800        8.05400
H          1.00600       -0.82800        7.56500
C          2.65100        0.33000        7.69000
H          3.05800       -0.01200        6.92600
C          4.55100        2.43900        6.08400
H          5.39600        2.55000        5.62100
H          4.08000        1.70300        5.66300
C          3.73100        3.70200        5.90700
H          3.33700        3.70200        5.02100
H          3.00800        3.70200        6.55400
P          4.89200        1.99700        7.83900
Pd         5.66100        3.70200        9.17400
Se         6.40000        1.82600       10.61200
Se         5.98500        3.70200       13.87600
Se         9.28100        3.70200       12.21400
W          7.04000        3.70200       11.87200
C          9.76100       11.10700        3.84100
H          9.19800       10.32500        3.74800
H          9.19800       11.88900        3.74800
Cl        10.85000       11.10700        2.63900
Cl        10.43300       11.10700        5.45500
C          4.55100        4.96600        6.08400
H          5.39600        4.85400        5.62100
H          4.08000        5.70200        5.66300
P          4.89200        5.40800        7.83900
C          6.02600        6.82700        7.64100
C          7.14600        6.68500        6.85000
H          7.29400        5.88800        6.39300
C          8.04700        7.72200        6.73400
H          8.79600        7.62100        6.19400
C          7.85200        8.89700        7.40500
H          8.47600        9.58300        7.33900
C          6.74300        9.05400        8.16300
H          6.59900        9.86100        8.60100
C          5.81000        8.02200        8.29900
H          5.05300        8.13900        8.82500
C          3.31000        6.09000        8.41400
C          2.68100        5.59000        9.55200
H          3.09800        4.93600       10.06300
C          1.44200        6.06400        9.92400
H          1.02600        5.72400       10.68300
C          0.83200        7.00900        9.20200
H         -0.01000        7.30800        9.46500
C          1.42600        7.56300        8.05400
H          1.00600        8.23200        7.56500
C          2.65100        7.07400        7.69000
H          3.05800        7.41600        6.92600
Se         6.40000        5.57900       10.61200
