99
C:\Users\Javier\OneDrive - Universitat de Barcelona\Tesi\4 - Contribucions\Treballs\3-PhD\chapter_1\cif\pc3p\ALUYIP.pc3p.pdb
Rh         7.39900        3.87800        0.45500
P          6.02400        4.06800       -1.24400
P          5.80800        4.41400        1.87800
O          8.71900        3.53100        2.06700
O          8.93700        3.26300       -0.86300
O         11.42600        1.02000       -1.59800
N         10.80800        3.02700        2.95200
N         12.08700        2.66200        2.48800
C          9.91500        3.16400        1.89600
C         10.64600        2.80300        0.71500
C         11.99100        2.54100        1.18000
C         13.23200        2.24300        0.37800
H         14.02400        2.38300        0.93700
H         13.27000        2.83900       -0.39900
H         13.20900        1.31200        0.07400
C         10.08300        2.80100       -0.58000
C         10.81400        2.25000       -1.74500
C         10.98900        2.71100       -3.01100
H         10.65600        3.52300       -3.37000
C         11.76900        1.74000       -3.69300
H         12.07100        1.78600       -4.59400
C         11.99500        0.74600       -2.82300
H         12.48400       -0.04500       -3.02500
C         10.57500        3.12400        4.34500
C          9.40000        3.65500        4.86100
H          8.73500        3.98900        4.27100
C          9.18600        3.70400        6.23800
H          8.37200        4.06200        6.57300
C         10.13700        3.24100        7.12000
H          9.98100        3.26000        8.05700
C         11.31700        2.75000        6.61200
H         11.99400        2.45900        7.21300
C         11.54300        2.67200        5.24300
H         12.36000        2.31100        4.91600
C          5.10600        2.52300       -1.62700
C          5.06500        1.47500       -0.71000
H          5.58400        1.52800        0.08500
C          4.27600        0.35400       -0.93900
H          4.27100       -0.35700       -0.30900
C          3.50100        0.26600       -2.07500
H          2.94000       -0.48900       -2.21200
C          3.54200        1.28200       -3.01900
H          3.03000        1.21800       -3.81800
C          4.34600        2.40200       -2.78400
H          4.37400        3.09600       -3.43200
C          6.85700        4.49500       -2.82000
C          7.52900        3.51100       -3.55100
H          7.48900        2.60700       -3.26500
C          8.25400        3.83600       -4.68900
H          8.70700        3.15200       -5.16800
C          8.32600        5.14100       -5.13400
H          8.82000        5.35700       -5.91600
C          7.66500        6.13500       -4.42100
H          7.70800        7.03700       -4.71800
C          6.93800        5.81800       -3.27200
H          6.49200        6.50600       -2.79200
C          4.65500        5.28600       -1.17800
H          5.03900        6.19800       -1.14100
H          4.12200        5.21600       -2.00800
C          3.72400        5.08500        0.03100
H          3.45500        4.13500        0.08200
H          2.90500        5.62700       -0.09300
C          4.41500        5.49400        1.35100
H          3.73500        5.50300        2.07000
H          4.75500        6.41900        1.25200
C          5.01400        2.93100        2.64500
C          5.83500        1.85300        2.94600
H          6.77000        1.91800        2.79200
C          5.30100        0.67600        3.47200
H          5.87400       -0.05400        3.67300
C          3.95200        0.57000        3.70100
H          3.59000       -0.23500        4.05300
C          3.12300        1.63700        3.41700
H          2.19100        1.57200        3.58500
C          3.65200        2.80700        2.88400
H          3.07200        3.53300        2.68200
C          6.37800        5.38000        3.32600
C          5.83400        5.20400        4.59900
H          5.18300        4.52700        4.74100
C          6.23200        6.00800        5.67000
H          5.86800        5.86000        6.53300
C          7.14500        7.00600        5.47600
H          7.39600        7.56200        6.20500
C          7.70500        7.21300        4.22600
H          8.34200        7.90500        4.09200
C          7.31500        6.38500        3.15500
H          7.70300        6.51800        2.30000
C          9.13600       -0.36200        6.72300
H          9.84200        0.26600        6.83100
C          9.41500       -1.69000        6.64100
H         10.31900       -1.97900        6.68400
C          8.42900       -2.60700        6.49600
H          8.64600       -3.53000        6.46500
C          7.12700       -2.21400        6.39500
H          6.43100       -2.85100        6.27900
C          6.84800       -0.84600        6.46800
H          5.95300       -0.53600        6.38900
C          7.88100        0.05900        6.65500
H          7.68900        0.98700        6.73200
