69
C:\Users\Javier\OneDrive - Universitat de Barcelona\Tesi\4 - Contribucions\Treballs\3-PhD\chapter_1\cif\pc3p\AMABIA.pc3p.pdb
I          8.64400        6.04100        4.78600
I          9.56000        3.54300        2.10400
Rh         7.45600        3.86700        3.73200
Cl        10.22000       -2.29600        5.56100
Cl        12.19100       -1.93800        3.44700
P          6.34400        2.27800        2.47000
P          5.44600        4.53600        4.65200
F         10.17500        3.18200        5.32700
F          9.06300        2.79100        7.11400
F          9.55800        1.18600        5.78400
O          6.97000        1.81200        5.64600
C          7.76300        2.58100        5.16100
C          9.19000        2.46500        5.82900
C          4.94200        1.42600        3.28500
H          4.56300        0.77000        2.64800
H          5.29300        0.91800        4.05900
C          3.81200        2.33000        3.77600
H          3.04500        1.76400        4.04400
H          3.51400        2.90400        3.02600
C          4.20500        3.22600        4.96100
H          4.54900        2.64400        5.68400
H          3.38200        3.65900        5.30300
C          7.28000        0.84500        1.85100
C          7.88100       -0.01700        2.77000
H          7.84200        0.18200        3.69900
C          8.53500       -1.15700        2.33900
H          8.94600       -1.73600        2.97000
C          8.58900       -1.45100        0.98500
H          9.03300       -2.23700        0.68800
C          7.99600       -0.60300        0.07200
H          8.03500       -0.81000       -0.85400
C          7.34600        0.54700        0.48900
H          6.94800        1.13000       -0.14700
C          5.63200        3.06200        0.98400
C          4.62400        2.44000        0.24100
H          4.25000        1.62400        0.54800
C          4.16800        3.01000       -0.94300
H          3.49300        2.57300       -1.45000
C          4.69700        4.20900       -1.38000
H          4.39700        4.58800       -2.19700
C          5.65500        4.85900       -0.63600
H          5.99200        5.70000       -0.92300
C          6.13000        4.28000        0.53700
H          6.80400        4.72400        1.03800
C          4.66000        5.70100        3.48900
C          3.30800        5.59000        3.15600
H          2.76500        4.94800        3.59800
C          2.75100        6.41400        2.18000
H          1.83700        6.31300        1.94600
C          3.51900        7.38000        1.55000
H          3.13700        7.93100        0.87700
C          4.84600        7.53300        1.90700
H          5.36800        8.21500        1.49900
C          5.42100        6.69800        2.85700
H          6.33800        6.80300        3.08100
C          5.50900        5.36200        6.27600
C          5.16100        6.69500        6.42100
H          4.88500        7.20100        5.66500
C          5.21700        7.29100        7.67900
H          4.97300        8.20300        7.77800
C          5.62300        6.57100        8.78200
H          5.65100        6.98600        9.63600
C          5.98900        5.24600        8.64600
H          6.28200        4.75400        9.40300
C          5.92800        4.63100        7.39700
H          6.17300        3.71800        7.30600
C         11.85400       -2.65000        5.02700
H         11.97500       -3.63200        4.97600
H         12.49900       -2.29700        5.69000
