59
C:\Users\Javier\OneDrive - Universitat de Barcelona\Tesi\4 - Contribucions\Treballs\3-PhD\chapter_1\cif\pc3p\AMACAS.pc3p.pdb
Pd         5.48600        7.28400        0.02000
F          6.45500        5.82400       -1.07300
P          4.57800        5.62800        1.19600
C          3.42400        4.55700        0.23700
H          2.98600        3.93300        0.88300
C          2.31900        5.37300       -0.43700
H          1.72400        4.77100       -0.93200
H          2.72100        6.01800       -1.05700
H          1.80500        5.85300        0.24500
C          4.14600        3.70200       -0.81400
H          4.65100        4.28400       -1.41900
H          3.48700        3.19000       -1.32800
H          4.76100        3.08400       -0.36600
C          5.93900        4.51600        1.75900
H          6.39500        4.16100        0.94300
C          6.97300        5.31900        2.55400
H          7.64400        4.70800        2.92500
H          6.52500        5.79700        3.28300
H          7.41200        5.96400        1.96000
C          5.44300        3.31600        2.56900
H          5.06500        3.62700        3.41800
H          6.19300        2.71100        2.75000
H          4.75500        2.83900        2.06000
C          3.65400        6.00800        2.72000
H          3.06700        5.23700        2.92400
H          4.30300        6.08800        3.46300
C          2.78400        7.28400        2.70300
H          2.18500        7.28400        3.49200
H          2.21700        7.28400        1.89100
C          2.62000        0.00000        5.69700
H          2.05200       -0.80100        5.57200
H          2.05200        0.80100        5.57200
Cl         3.29900        0.00000        7.34900
Cl         3.91300        0.00000        4.49800
F          6.45500        8.74400       -1.07300
C          3.65400        8.56000        2.72000
P          4.57800        8.94000        1.19600
C          3.42400       10.01100        0.23700
H          2.98600       10.63500        0.88300
C          2.31900        9.19500       -0.43700
H          1.72400        9.79700       -0.93200
H          2.72100        8.55000       -1.05700
H          1.80500        8.71500        0.24500
C          4.14600       10.86600       -0.81400
H          4.65100       10.28400       -1.41900
H          3.48700       11.37800       -1.32800
H          4.76100       11.48400       -0.36600
C          5.93900       10.05200        1.75900
H          6.39500       10.40700        0.94300
C          6.97300        9.24900        2.55400
H          7.64400        9.86000        2.92500
H          6.52500        8.77100        3.28300
H          7.41200        8.60400        1.96000
C          5.44300       11.25200        2.56900
H          5.06500       10.94100        3.41800
H          6.19300       11.85700        2.75000
H          4.75500       11.72900        2.06000
H          3.06700        9.33100        2.92400
H          4.30300        8.48000        3.46300
