100
C:\Users\Javier\OneDrive - Universitat de Barcelona\Tesi\4 - Contribucions\Treballs\3-PhD\chapter_1\cif\pc3p\BASPET.pc3p.pdb
Ru         7.63400       18.87400       10.78000
H          6.35700       18.83500        9.81200
P          6.95700       20.77200       11.86000
P          6.49800       17.64600       12.33500
F          9.34100       19.02500       12.26600
N          8.19300       20.73500        8.30300
N         10.03600       20.05200        9.12900
N          7.94000       16.75600        8.48700
N          9.27100       16.27000       10.08000
C          8.69000       19.98300        9.33300
C          9.20400       21.23200        7.48200
C         10.36100       20.80800        8.00100
C          6.79400       21.04400        8.08900
H          6.24800       20.54000        8.72900
H          6.54100       20.79700        7.17600
H          6.64900       22.00400        8.21900
C          8.89800       22.02500        6.25000
H          8.41400       21.46000        5.61100
H          9.73500       22.33300        5.84400
H          8.34500       22.79800        6.48700
C         11.78300       21.02700        7.56500
H         12.24800       21.57400        8.23300
H         11.79200       21.48800        6.70100
H         12.23400       20.16200        7.47900
C         11.03600       19.39900        9.96000
H         10.61700       19.07800       10.78400
H         11.74500       20.03800       10.18200
H         11.42100       18.64200        9.47200
C          8.32700       17.18900        9.73000
C          8.60600       15.59500        8.10300
C          9.44800       15.29100        9.10500
C          6.98800       17.44400        7.61700
H          6.25300       17.80300        8.15500
H          6.63300       16.81100        6.95800
H          7.44200       18.17900        7.15400
C          8.37100       14.91600        6.79100
H          7.43300       14.63900        6.72900
H          8.94900       14.12800        6.72300
H          8.57900       15.53600        6.06100
C         10.43900       14.18400        9.25000
H         11.33800       14.56200        9.35200
H         10.41300       13.61600        8.45200
H         10.21700       13.64900       10.04000
C          9.94700       16.23700       11.36800
H          9.70300       17.03300       11.88600
H         10.91600       16.22200       11.22700
H          9.67700       15.43300       11.85800
C          7.90600       22.29200       11.45800
C          9.28200       22.27700       11.71000
H          9.68500       21.50000       12.08000
C         10.05900       23.39100       11.42300
H         10.98900       23.37700       11.61200
C          9.49400       24.51300       10.86900
H         10.03100       25.27600       10.68700
C          8.14900       24.53600       10.57800
H          7.75900       25.30400       10.17600
C          7.36200       23.42600       10.87500
H          6.43400       23.44500       10.67300
C          5.21500       21.38600       11.78000
C          4.32600       20.79400       10.89200
H          4.62100       20.08200       10.33800
C          3.00600       21.23100       10.80400
H          2.41100       20.82000       10.18700
C          2.56200       22.25500       11.60800
H          1.66400       22.55800       11.54400
C          3.42900       22.84200       12.50600
H          3.12200       23.54300       13.06800
C          4.74600       22.41400       12.59500
H          5.33300       22.82600       13.21700
C          7.23600       20.71600       13.68600
H          8.19500       20.54700       13.86200
H          7.00600       21.59500       14.07600
C          6.40200       19.63000       14.37000
H          6.44900       19.76700       15.34900
H          5.45600       19.74400       14.09900
C          6.82200       18.18900       14.06400
H          6.34100       17.58100       14.68000
H          7.79000       18.09700       14.24800
C          6.82400       15.82900       12.44900
C          6.68700       15.07100       11.28800
H          6.38000       15.48900       10.49300
C          6.99000       13.71700       11.27300
H          6.91400       13.22200       10.46600
C          7.40100       13.08900       12.43700
H          7.60600       12.16100       12.43100
C          7.51400       13.81100       13.59500
H          7.78000       13.37600       14.39700
C          7.24300       15.16900       13.60800
H          7.34400       15.66000       14.41600
C          4.65400       17.51600       12.28500
C          4.02200       17.36700       11.04600
H          4.53500       17.41100       10.24700
C          2.65200       17.15600       10.97500
H          2.23400       17.04700       10.12900
C          1.89300       17.10300       12.12600
H          0.95600       16.96000       12.07000
C          2.49900       17.25700       13.35600
H          1.97900       17.22400       14.15100
C          3.86100       17.46200       13.43100
H          4.26900       17.56700       14.28300
