114
C:\Users\Javier\OneDrive - Universitat de Barcelona\Tesi\4 - Contribucions\Treballs\3-PhD\chapter_1\cif\pc3p\BAVDOU.pc3p.pdb
Pd        -1.10600       -6.44800       -3.76500
Ni        -3.17800       -8.75900       -3.96000
P         -0.32100       -5.17300       -2.02300
P          0.57700       -5.66100       -5.10300
S         -2.10300       -7.72700       -5.52000
S         -3.24600       -6.94600       -2.80600
N         -3.88300       -9.81100       -2.50300
N         -2.81000      -10.49000       -4.72600
C          0.06400       -4.03300       -5.71500
C         -0.26700       -2.38600       -1.63100
H          0.61200       -2.50100       -1.28900
C          0.31800       -6.28600       -7.81400
H         -0.30100       -5.56700       -7.84500
C          0.95000       -6.61300       -6.60800
C         -1.95600      -10.38400       -5.96700
H         -1.41300      -11.20600       -6.06200
H         -2.53900      -10.30900       -6.76100
C         -0.71200       -5.79200       -0.35700
C         -0.99300       -3.48400       -2.10700
C         -3.26200       -7.81200       -1.18700
H         -2.35500       -8.13700       -0.96300
H         -3.56200       -7.19600       -0.47100
C          1.49800       -5.01000       -1.90900
H          1.71200       -4.42800       -1.13800
H          1.88000       -5.90400       -1.72200
C         -1.46800       -5.02800        0.54700
H         -1.79200       -4.17100        0.29700
C         -0.23300       -7.05100        0.02600
H          0.28200       -7.56900       -0.58000
C         -1.26600       -6.78800        2.18600
H         -1.45900       -7.13100        3.05000
C          1.85500       -7.68700       -6.57900
H          2.28800       -7.91900       -5.76600
C          2.11900       -8.41100       -7.73600
H          2.73300       -9.13300       -7.71200
C          0.99600       -3.05500       -6.05600
H          1.92200       -3.21900       -5.92600
C         -1.28900       -3.77500       -5.89700
H         -1.93300       -4.42500       -5.64400
C          1.48800       -8.08100       -8.93300
H          1.66600       -8.58100       -9.72000
C         -4.22000       -8.97400       -1.31100
H         -4.17200       -9.53000       -0.49300
H         -5.14400       -8.63300       -1.39700
C         -1.73700       -5.54300        1.82100
H         -2.24700       -5.03200        2.43800
C         -2.72800      -10.73100       -2.24900
H         -3.04400      -11.53800       -1.77000
H         -2.05900      -10.27500       -1.67900
C         -1.04100       -9.18800       -5.90200
H         -0.57800       -9.06100       -6.76700
H         -0.35900       -9.31200       -5.19500
C         -5.11400      -10.57800       -2.88600
H         -5.76600       -9.95800       -3.30200
H         -5.53100      -10.95200       -2.07000
C         -0.51600       -7.53700        1.29700
H         -0.19000       -8.39200        1.55800
C         -4.02800      -11.27200       -5.08400
H         -3.76000      -12.07200       -5.60200
H         -4.61000      -10.71800       -5.66200
C          2.21100       -5.40800       -4.33400
H          2.55900       -6.28300       -4.02700
H          2.83600       -5.06100       -5.01700
C          2.19000       -4.44100       -3.14700
H          3.12100       -4.20200       -2.91200
H          1.72600       -3.61100       -3.41900
C          0.59700       -7.01900       -8.96800
H          0.17300       -6.78800       -9.78600
C         -1.70400       -2.57500       -6.44400
H         -2.62900       -2.41000       -6.58200
C         -0.76700       -1.61300       -6.79500
H         -1.05000       -0.79100       -7.17800
C         -0.85300       -1.12900       -1.66800
H         -0.36900       -0.37900       -1.34200
C         -2.13000       -0.94700       -2.17300
H         -2.51600       -0.07800       -2.19300
C         -2.27200       -3.30000       -2.61500
H         -2.76200       -4.04400       -2.94300
C         -4.81900      -11.71500       -3.85800
H         -5.67500      -12.11400       -4.15700
H         -4.30900      -12.41700       -3.38400
C         -2.83900       -2.03100       -2.64800
H         -3.71400       -1.90900       -2.99600
C         -2.07600      -11.14400       -3.59200
H         -1.12600      -10.86400       -3.60200
H         -2.11100      -12.12700       -3.69300
C          0.57700       -1.85000       -6.58300
H          1.21600       -1.18300       -6.80100
P          4.94400       -1.83800       -5.55400
F          4.36000       -3.19800       -6.13200
F          3.68700       -1.68000       -4.59900
F          5.51200       -0.47500       -4.97300
F          5.73000       -2.65500       -4.47300
F          6.17200       -1.97200       -6.55200
F          4.08100       -1.06800       -6.66800
P          2.05500       -9.54800       -2.65600
F          1.01600       -8.41900       -3.09600
F          3.11400      -10.63000       -2.29400
F          2.53000       -8.65700       -1.51200
F          3.13500       -8.91800       -3.64600
F          0.99600      -10.19200       -1.75800
F          1.50600      -10.36300       -3.87700
C          4.15300       -1.21100       -1.30200
C          5.43700       -0.52400       -1.43900
H          5.59800       -0.31600       -2.38400
H          6.15400       -1.10200       -1.10500
H          5.41900        0.30900       -0.92100
N          3.17100       -1.74600       -1.21000
C          3.49100      -11.53300       -6.06700
C          2.38400      -12.35300       -5.66100
H          2.13800      -12.95400       -6.39500
H          1.62000      -11.78200       -5.43500
H          2.64100      -12.88200       -4.87700
N          4.33200      -10.88700       -6.42900
