84
C:\Users\Javier\OneDrive - Universitat de Barcelona\Tesi\4 - Contribucions\Treballs\3-PhD\chapter_1\cif\pc3p\BECSOS.pc3p.pdb
Ru         5.75900        7.70200        9.94300
P          6.01200        8.29800       12.12700
P          3.49100        7.73600       10.22700
C          6.79900        5.65400        9.50700
C          7.72000        6.63900        9.85500
C          7.83900        7.82900        9.15300
C          6.97200        8.08900        8.07500
C          6.04100        7.11000        7.71000
C          5.07800        7.00000        6.54900
C          4.46000        5.73500        6.73000
C          4.92300        5.07100        7.80400
C          5.94900        5.92200        8.44500
C          4.83400        9.53800       12.77400
C          3.37000        9.12500       12.67700
C          2.85300        9.10800       11.24800
C          7.60400        9.17800       12.39200
C          7.78000       10.39500       11.75900
C          8.96200       11.09900       11.91900
C          9.95000       10.60600       12.70900
C          9.78800        9.42300       13.32400
C          8.60800        8.67400       13.17600
C          6.01700        6.99200       13.42100
C          5.81300        7.28200       14.75600
C          5.86600        6.28000       15.71300
C          6.11300        4.98300       15.34800
C          6.28800        4.68100       14.04500
C          6.23900        5.67600       13.08400
C          2.64300        6.27900       10.95000
C          3.33000        5.09700       11.13500
C          2.69700        4.00100       11.71400
C          1.41400        4.08600       12.13600
C          0.69900        5.25600       11.96100
C          1.31100        6.35100       11.36500
C          2.60500        8.04900        8.65100
C          1.73200        7.14400        8.08600
C          1.12200        7.44100        6.86100
C          1.35400        8.63200        6.23900
C          2.22400        9.53200        6.79800
C          2.84200        9.24000        7.98700
Cl         2.16300        6.52000       15.23700
Cl        -0.56300        5.63600       15.60600
C          1.01000        5.71100       16.13600
B          6.05900        1.70700       11.11700
F          5.01700        1.28800       11.89800
F          6.37700        0.70900       10.26000
F          5.68500        2.78900       10.39100
F          7.14000        1.97500       11.83400
H          5.38800        9.12600        9.85700
H          6.64600        4.88000       10.08900
H          8.23400        6.53000       10.68400
H          8.44300        8.53000        9.47500
H          6.95900        8.97100        7.65000
H          4.44900        7.70800        6.54400
H          5.46000        7.07000        5.78000
H          3.80300        5.39900        6.16500
H          4.64800        4.23200        8.09000
H          5.09000        9.68200       13.67500
H          4.97200       10.33900       12.26400
H          3.26500        8.24100       13.06000
H          2.83300        9.74200       13.19900
H          3.09100        9.94800       10.82300
H          1.88600        9.05500       11.26900
H          7.10200       10.74200       11.22500
H          9.07900       11.91200       11.48500
H         10.73600       11.08600       12.82500
H         10.47200        9.09200       13.86000
H          8.51200        7.85300       13.60100
H          5.63800        8.15800       15.01600
H          5.73500        6.49000       16.60900
H          6.15700        4.31600       15.99300
H          6.44400        3.79900       13.79000
H          6.35700        5.44900       12.18900
H          4.21900        5.03100       10.87000
H          3.16200        3.20200       11.81300
H          1.01100        3.35500       12.54600
H         -0.18600        5.31000       12.24000
H          0.83200        7.13800       11.24000
H          1.54900        6.34000        8.51500
H          0.55200        6.82000        6.46900
H          0.92400        8.83200        5.44000
H          2.39400       10.34100        6.37300
H          3.43500        9.85500        8.35400
H          1.31900        4.79800       16.24700
H          0.99800        6.11400       17.01900
