109
C:\Users\Javier\OneDrive - Universitat de Barcelona\Tesi\4 - Contribucions\Treballs\3-PhD\chapter_1\cif\pc3p\BEWJET.pc3p.pdb
Rh         6.82500        2.10000        3.53800
P          6.07800        2.94400        5.48600
P          8.77000        1.73100        4.57200
C          4.43000        3.75400        5.18600
H          4.20000        4.27300        5.98400
C          4.49100        4.69700        4.02300
C          4.79900        4.25500        2.71500
C          4.98500        2.84700        2.36000
H          5.08200        2.71700        1.39400
C          4.57600        1.71500        2.99600
H          4.48000        0.96500        2.37200
C          3.61200        1.61700        4.11300
C          3.47000        2.60600        5.09100
C          2.52600        2.40700        6.11300
H          2.40700        3.06700        6.75900
C          1.78200        1.27500        6.17600
H          1.16200        1.17000        6.86000
C          1.93700        0.27400        5.23400
H          1.44000       -0.50800        5.29200
C          2.83500        0.45500        4.21000
H          2.93000       -0.21000        3.56700
C          4.94600        5.20900        1.69300
H          5.14400        4.92900        0.82900
C          4.80200        6.55000        1.95300
H          4.95100        7.17000        1.27700
C          4.43500        6.97900        3.21800
H          4.26400        7.88100        3.36600
C          4.32400        6.08000        4.25900
H          4.14000        6.38600        5.11800
C         10.12700        1.43500        3.31900
H         10.95900        1.26000        3.80600
C         10.30500        2.69100        2.51500
C          9.26500        3.23400        1.77700
C          7.95000        2.58800        1.61800
H          7.38300        3.08300        0.99100
C          7.65800        1.23400        1.59600
H          6.94800        1.02200        0.95500
C          8.58300        0.11400        1.78000
C          9.78100        0.19700        2.51000
C         10.63300       -0.89900        2.54400
H         11.44000       -0.83600        3.00200
C         10.30300       -2.08500        1.91100
H         10.89400       -2.80500        1.93200
C          9.10900       -2.19900        1.25100
H          8.86900       -3.00600        0.85300
C          8.26300       -1.11600        1.18300
H          7.45600       -1.19900        0.72800
C          9.47000        4.46500        1.12900
H          8.75200        4.85500        0.62500
C         10.67100        5.11800        1.20500
H         10.78600        5.93400        0.77200
C         11.71000        4.56200        1.92800
H         12.53100        4.99700        1.96900
C         11.53500        3.37400        2.58300
H         12.23600        3.01300        3.07800
C          7.18600        4.24000        6.13900
H          7.36000        4.88800        5.43800
H          6.74000        4.70000        6.86600
C          8.51500        3.68000        6.64200
H          8.99000        4.38500        7.10800
H          8.33100        2.97800        7.28500
C          9.42300        3.12000        5.56100
H         10.24700        2.82700        5.98200
H          9.65000        3.84000        4.95400
C          5.74700        1.87100        6.90500
C          5.52600        2.38000        8.19200
H          5.56600        3.29700        8.34600
C          5.24900        1.51000        9.23400
H          5.10300        1.84200       10.09000
C          5.19100        0.14900        8.99500
H          5.01600       -0.43100        9.70100
C          5.38600       -0.35500        7.74700
H          5.32900       -1.27300        7.60100
C          5.66400        0.48600        6.71000
H          5.80100        0.13400        5.85900
C          8.82800        0.23900        5.59400
C          9.41500        0.16800        6.85000
H          9.79400        0.93400        7.21600
C          9.45500       -1.00900        7.57400
H          9.87400       -1.03500        8.40300
C          8.87400       -2.14200        7.06000
H          8.90000       -2.94000        7.53900
C          8.25300       -2.09000        5.83100
H          7.83300       -2.84900        5.49200
C          8.25100       -0.92600        5.10900
H          7.85200       -0.91700        4.26900
C          2.93600        1.13100       -0.42600
C          2.80900        2.45900       -0.80300
H          2.00300        2.91000       -0.68700
C          3.89900        3.09600       -1.35300
H          3.82400        3.98600       -1.61700
C          5.10700        2.43900       -1.52000
H          5.83500        2.88100       -1.89300
C          5.21500        1.17000       -1.14300
H          6.02300        0.72400       -1.26900
C          4.15400        0.49500       -0.56900
H          4.25900       -0.38300       -0.28000
C          1.76600        0.47500        0.18800
H          1.98400       -0.43500        0.40300
H          1.03000        0.49000       -0.42900
H          1.52000        0.94300        0.99000
C          5.06700       -2.84600        3.22900
F          6.16800       -3.26200        2.82500
F          5.26800       -1.64300        3.48000
F          5.07100       -3.47900        4.30200
O          2.60100       -2.81600        3.07400
O          3.60600       -4.52400        2.09300
O          3.79200       -2.43700        1.17000
S          3.60700       -3.19000        2.26500
