101
C:\Users\Javier\OneDrive - Universitat de Barcelona\Tesi\4 - Contribucions\Treballs\3-PhD\chapter_1\cif\pc3p\BICRUD.pc3p.pdb
Ru         4.20700        5.03600        0.45400
S          3.63400        7.22500        1.27600
S          3.94400        6.53800       -1.48200
C          3.58800        7.71900       -0.36500
O          3.26800        8.99000       -0.63000
C          3.27700        9.33400       -2.08000
H          2.61700        8.78400       -2.57100
H          4.17300        9.17800       -2.46900
C          2.91200       10.78900       -2.16000
H          3.54300       11.31300       -1.62300
H          2.00400       10.91800       -1.81700
H          2.95500       11.08400       -3.09400
S          4.49700        3.15000       -0.98200
S          1.96100        4.20500       -0.20900
C          2.82000        3.15700       -1.22300
O          2.31000        2.38400       -2.17000
C          0.89600        2.55600       -2.51100
H          0.66000        3.51700       -2.54900
H          0.31800        2.11400       -1.83800
C          0.72900        1.91100       -3.86400
H          0.82200        0.93800       -3.77700
H          1.41300        2.25100       -4.47600
H         -0.16100        2.12100       -4.21900
P          6.40300        5.52200        0.72000
C          6.87700        6.17700        2.38100
H          7.84200        6.40200        2.38000
H          6.37000        7.00700        2.56300
C          6.59700        5.15600        3.49000
H          6.97300        4.28000        3.22400
H          7.05800        5.44500        4.31700
C          5.10800        4.98700        3.78600
H          4.71500        5.88700        3.91100
H          5.01700        4.50400        4.64500
C          7.01200        6.79900       -0.43700
C          7.01400        8.13500       -0.11200
H          6.82100        8.38600        0.78500
C          7.28000        9.11600       -1.02400
H          7.28100       10.02700       -0.75700
C          7.54500        8.77900       -2.34300
H          7.71400        9.45500       -2.98900
C          7.56100        7.44700       -2.70100
H          7.76600        7.20000       -3.59500
C          7.27800        6.46400       -1.75900
H          7.26600        5.55100       -2.02300
C          7.68400        4.19500        0.55900
C          9.01600        4.54300        0.36800
H          9.25200        5.45400        0.24200
C         10.00500        3.57500        0.36200
H         10.91400        3.82600        0.25200
C          9.66500        2.23900        0.51500
H         10.33800        1.57000        0.48500
C          8.34600        1.88700        0.70900
H          8.11200        0.97600        0.84900
C          7.35200        2.86900        0.69900
H          6.44100        2.62000        0.79000
C          4.62900        2.38600        2.75400
C          4.11600        1.40600        1.89100
H          3.49700        1.64800        1.21300
C          4.51000        0.08400        2.02600
H          4.17100       -0.56200        1.41500
C          5.37400       -0.32200        3.01400
H          5.62800       -1.23400        3.09800
C          5.85300        0.62000        3.86700
H          6.44100        0.35700        4.56500
C          5.50200        1.96300        3.74200
H          5.86900        2.59900        4.34400
P          4.11000        4.09600        2.51600
C          2.48600        4.10900        3.38400
C          1.47100        5.00000        3.01000
H          1.60800        5.58300        2.27100
C          0.26800        5.04800        3.70600
H         -0.41500        5.65200        3.43700
C          0.07000        4.21500        4.78900
H         -0.75100        4.24600        5.26500
C          1.05300        3.33600        5.18700
H          0.91300        2.76900        5.93600
C          2.26600        3.28600        4.47500
H          2.94500        2.68000        4.74800
C         10.03300       12.37600        1.87300
H         10.38200       13.16300        1.38300
H          9.24100       12.67200        2.38600
Cl        11.22000       11.85600        2.96600
Cl         9.54000       11.20800        0.74000
C          3.68300        9.80200       -1.66100
H          4.28700        9.29900       -2.27200
H          4.14300       10.59600       -1.32800
C          2.37500       10.19100       -2.40000
H          1.80000       10.69600       -1.80000
H          1.91000        9.37500       -2.69800
H          2.59900       10.73500       -3.18600
C          4.30700        2.20200        2.71300
C          3.54200        1.36000        2.00600
H          2.88400        1.72200        1.41400
C          3.66300        0.04300        2.10400
H          3.06300       -0.52500        1.64800
C          4.64900       -0.49700        2.84400
H          4.71600       -1.43900        2.92800
C          5.55500        0.30200        3.46900
H          6.32900       -0.07300        3.87800
C          5.31300        1.68400        3.50200
H          5.84700        2.24400        4.05300
