111
C:\Users\Javier\OneDrive - Universitat de Barcelona\Tesi\4 - Contribucions\Treballs\3-PhD\chapter_1\cif\pc3p\BOYSOY.pc3p.pdb
Ru         4.68800        4.11000        3.19000
P          5.88700        5.79700        4.22900
P          2.65300        5.16200        3.49200
F          3.31500        1.20600        4.19700
F          2.06700       -0.75100        2.96600
F          1.63700       -0.67200        0.27800
F          2.51900        1.47800       -1.15300
F          3.76700        3.47200        0.01800
O          5.13400        5.94000        0.77900
N          6.88400        2.05800        4.24600
N          7.08300        2.34500        2.12400
C          4.99100        5.15200        1.61400
C          6.35600        2.78600        3.19500
C          7.89200        1.22100        3.81300
H          8.39900        0.62400        4.35100
C          8.02400        1.40900        2.49900
H          8.64900        0.97700        1.92700
C          6.45800        2.03400        5.66100
H          5.73300        2.71300        5.78100
C          5.89200        0.67500        6.00300
H          6.59500       -0.01200        5.88200
H          5.14800        0.46400        5.38500
C          5.38400        0.62800        7.43800
H          5.02600       -0.27500        7.63300
H          4.64800        1.28100        7.55000
C          6.51000        0.95400        8.41600
H          6.15200        0.98300        9.33800
H          7.20100        0.24700        8.37500
C          7.12600        2.28800        8.06900
H          7.90100        2.44800        8.66400
H          6.46200        3.00300        8.23900
C          7.58900        2.37400        6.61700
H          7.91500        3.28900        6.43000
H          8.34000        1.74600        6.47300
C          6.99500        2.85600        0.74200
H          6.16700        3.41300        0.67500
C          8.18200        3.75900        0.46000
H          8.19300        4.50600        1.11000
H          9.02200        3.24600        0.56900
C          8.10800        4.31500       -0.94800
H          8.91400        4.86200       -1.12800
H          7.31500        4.90000       -1.02700
C          8.01600        3.20300       -1.97800
H          8.84400        2.66100       -1.95800
H          7.92700        3.59500       -2.88300
C          6.81600        2.31000       -1.68800
H          6.79100        1.57100       -2.34500
H          5.98300        2.83700       -1.78900
C          6.88200        1.73300       -0.27800
H          6.06800        1.20000       -0.09700
H          7.66700        1.13400       -0.20000
C          3.64200        2.48500        2.19700
C          3.38200        2.44500        0.83800
C          2.71500        1.41300        0.18100
C          2.27100        0.34300        0.90600
C          2.49300        0.31800        2.23700
C          3.17200        1.35300        2.84300
C          7.57600        6.01600        3.53200
C          8.57100        5.10200        3.87900
H          8.37700        4.42500        4.51500
C          9.83200        5.15600        3.31700
H         10.49700        4.52600        3.57200
C         10.12500        6.13800        2.37900
H         10.99000        6.18200        1.98800
C          9.15900        7.04900        2.01500
H          9.36000        7.71900        1.37400
C          7.88900        6.99500        2.58300
H          7.22900        7.62800        2.32300
C          6.21700        5.84200        6.03400
C          5.24800        5.36400        6.91200
H          4.45800        4.96300        6.57000
C          5.43000        5.46900        8.29800
H          4.76100        5.14900        8.89200
C          6.58200        6.03500        8.79700
H          6.71100        6.09300        9.73700
C          7.54800        6.52100        7.94100
H          8.34000        6.90900        8.29100
C          7.36300        6.44200        6.57400
H          8.02200        6.80100        5.99100
C          5.15600        7.47100        4.01400
H          5.70500        8.12500        4.51600
H          5.20200        7.71700        3.05500
C          3.70400        7.58500        4.48200
H          3.60800        7.11500        5.34800
H          3.48900        8.54000        4.63100
C          2.70000        7.00300        3.48900
H          2.93100        7.31600        2.57900
H          1.79800        7.34700        3.70700
C          1.63600        4.84800        4.99900
C          0.40800        5.49600        5.14400
H          0.12900        6.11700        4.48300
C         -0.40800        5.25000        6.23100
H         -1.24800        5.68600        6.30200
C         -0.00000        4.36600        7.21600
H         -0.55700        4.19800        7.96800
C          1.21700        3.73300        7.10300
H          1.51000        3.14600        7.79100
C          2.02200        3.94800        5.98300
H          2.84200        3.47500        5.89400
C          1.42700        4.78700        2.18300
C          1.36700        5.50900        0.99200
H          1.90400        6.28600        0.88600
C          0.53100        5.10400       -0.03800
H          0.49900        5.61100       -0.84100
C         -0.25300        3.97900        0.08300
H         -0.81600        3.70200       -0.63100
C         -0.20700        3.25400        1.26900
H         -0.74600        2.47900        1.36700
C          0.61200        3.64900        2.30000
H          0.62600        3.14500        3.10500
H          4.35300        3.38100        4.57400
