137
C:\Users\Javier\OneDrive - Universitat de Barcelona\Tesi\4 - Contribucions\Treballs\3-PhD\chapter_1\cif\pc3p\BOZYAR.pc3p.pdb
C          4.58700        3.01600        4.30900
H          4.94500        2.09800        4.39900
H          4.95800        3.40100        3.47600
C          5.07400        3.85100        5.49300
H          4.50500        3.65700        6.27900
H          6.00100        3.58300        5.71700
C          5.04300        5.35000        5.21500
H          5.45400        5.51500        4.33100
H          5.59900        5.80900        5.89300
C          2.37200        1.79500        5.52700
C          1.78200        2.29800        6.67900
H          1.53100        3.21300        6.72100
C          1.55900        1.46700        7.76800
H          1.16700        1.81500        8.56000
C          1.90900        0.14200        7.69700
H          1.74500       -0.43000        8.43800
C          2.49200       -0.36500        6.56300
H          2.73200       -1.28400        6.52200
C          2.73100        0.45400        5.49000
H          3.14600        0.10000        4.71300
C          2.56200        1.93800        2.61200
C          1.53800        1.00800        2.48000
H          0.96300        0.82400        3.21400
C          1.35800        0.35000        1.26800
H          0.66400       -0.29400        1.18100
C          2.16600        0.61900        0.20000
H          2.03000        0.16700       -0.62500
C          3.17600        1.53900        0.31700
H          3.74000        1.72100       -0.42500
C          3.37400        2.20300        1.51400
H          4.06900        2.84500        1.58700
C          3.03200        6.50000        6.98600
C          1.72900        6.79400        7.32900
H          1.04500        6.73800        6.67200
C          1.40800        7.16900        8.61900
H          0.50900        7.38600        8.83600
C          2.37100        7.22900        9.58800
H          2.14700        7.49400       10.47300
C          3.66600        6.90200        9.26500
H          4.34000        6.92400        9.93400
C          3.99300        6.54200        7.97200
H          4.89300        6.32100        7.75900
C          3.71800        7.71700        4.45200
C          2.91800        8.18200        3.41600
H          2.13200        7.70600        3.17700
C          3.26100        9.33600        2.72400
H          2.70600        9.64900        2.01900
C          4.39800       10.02700        3.05800
H          4.64200       10.80300        2.56700
C          5.18600        9.60200        4.09800
H          5.96100       10.09600        4.33900
C          4.85000        8.45000        4.79700
H          5.39800        8.16000        5.51800
C         -1.73300        6.83000        6.17400
C         -2.13100        7.86400        7.03100
H         -2.04000        8.76300        6.73800
C         -2.65200        7.62300        8.28700
H         -2.91100        8.35200        8.83800
C         -2.79600        6.33600        8.74700
C         -2.41800        5.28600        7.94700
H         -2.50900        4.39100        8.25300
C         -1.90300        5.54900        6.69300
H         -1.64900        4.81100        6.15100
C         -3.70600        4.90200       10.43500
H         -4.33400        4.52000        9.78600
H         -4.13600        4.95300       11.31400
H         -2.91000        4.33300       10.49200
C         -2.24100        6.35700        3.23800
H         -1.88900        6.43300        2.32600
H         -3.09100        6.84100        3.30200
H         -2.38700        5.41200        3.45300
C         -0.99400        8.92500        4.09400
H         -0.48000        9.38000        4.79400
H         -1.91200        9.26900        4.08600
H         -0.57700        9.08800        3.22300
C          0.07400        3.72100        3.48000
C         -0.77300        2.94500        4.27500
H         -0.59200        2.85300        5.20500
C         -1.87800        2.30200        3.72100
H         -2.45400        1.78400        4.27100
C         -2.13100        2.42000        2.37800
H         -2.88600        1.98500        2.00000
C         -1.30300        3.16000        1.57700
H         -1.48400        3.22200        0.64500
C         -0.18900        3.82900        2.11400
C          0.68600        4.65500        1.22400
H          0.57000        5.60300        1.44000
H          0.43900        4.50100        0.28800
H          1.62300        4.40200        1.35900
O          0.45800        6.50300        4.33400
O         -3.32700        6.20800       10.01600
P          2.76200        2.92000        4.14700
P          3.37000        6.09600        5.22900
Pd         1.62500        4.81600        4.27000
Si        -1.02000        7.08600        4.43800
C         -1.27900        8.47500       11.73300
H         -2.07300        8.14800       11.32600
C         -0.39200        9.25100       10.99600
H         -0.57800        9.45500       10.08700
C          0.77100        9.73000       11.59000
H          1.37700       10.26100       11.08800
C          1.04500        9.43300       12.92000
H          1.83900        9.76100       13.32700
C          0.15800        8.65600       13.65700
H          0.34500        8.45300       14.56600
C         -1.00400        8.17800       13.06100
H         -1.61100        7.64700       13.56500
C          4.94600        5.99500        1.18700
H          5.08600        6.49900        1.98000
C          5.86100        5.01900        0.81100
H          6.62900        4.85700        1.34900
C          3.61200        6.54200        0.34700
H          2.98600        7.20900        0.60400
C          4.53000        4.51600       -1.13100
H          4.39000        4.01100       -1.92200
C          3.61500        5.49200       -0.75500
H          2.84700        5.65400       -1.29100
C          3.82200        6.23100        0.40300
H          3.19500        6.89800        0.66000
C         -0.96100        8.15700       11.90700
H         -1.71100        7.61200       11.70000
C         -0.58500        9.18200       11.04800
H         -1.07700        9.33600       10.24900
C          0.51300        9.97800       11.35300
H          0.77000       10.67900       10.76400
C          1.23200        9.75100       12.51900
H          1.98200       10.29600       12.72900
C          0.85600        8.72800       13.38100
H          1.34800        8.57200       14.18000
C         -0.24100        7.93000       13.07600
H         -0.49900        7.23100       13.66500
C          4.32100        4.82600       -1.18700
H          4.18000        4.32100       -1.98000
C          3.40600        5.80200       -0.81100
H          2.63800        5.96400       -1.34900
C          5.65400        4.27900       -0.34700
H          6.28100        3.61200       -0.60400
