40
C:\Users\Javier\OneDrive - Universitat de Barcelona\Tesi\4 - Contribucions\Treballs\3-PhD\chapter_1\cif\pc3p\BZPRRH10.pc3p.pdb
Rh         0.25100        2.06200        3.85100
Cl        -0.87600        3.24700        2.14400
Cl        -1.85500        1.37400        4.73900
P          2.19700        2.44500        2.70600
P          1.13800        0.41300        5.13600
O          1.94300        3.61500        5.51200
C          0.79200        3.44800        5.18000
C         -0.30400        4.27300        5.80100
C         -0.03100        4.82400        7.05900
C         -0.96600        5.64900        7.67300
C         -2.15600        5.96100        7.03800
C         -2.43000        5.43300        5.78900
C         -1.51300        4.56600        5.17700
C          3.75600        2.01500        3.55200
C          3.78100        0.56700        4.09400
C          2.94400        0.45300        5.39500
C          2.47100        4.16000        2.12100
C          3.35200        4.99900        2.78400
C          3.52600        6.33200        2.31100
C          2.74600        6.75600        1.18100
C          1.96100        5.93100        0.54700
C          1.79200        4.50900        0.98700
C          2.31700        1.43900        1.19000
C          3.24500        1.74700        0.20200
C          2.63100       -0.22500       -1.02600
C          1.73100       -0.56700       -0.03500
C          1.55500        0.29500        1.05500
C          0.79100       -1.21100        4.36800
C         -0.26700       -1.37300        3.48300
C         -0.50000       -2.60700        2.85400
C          0.34100       -3.66600        3.11800
C          1.36000       -3.52800        4.01500
C          1.61900       -2.30700        4.63600
C          0.55500        0.26900        6.85600
C         -0.19400       -0.82800        7.26900
C         -0.59900       -0.91100        8.60800
C         -0.25700        0.06400        9.51900
C          0.49400        1.16600        9.11600
C          0.92700        1.27800        7.77100
C          3.38200        0.92200       -0.89600
