58
C:\Users\Javier\OneDrive - Universitat de Barcelona\Tesi\4 - Contribucions\Treballs\3-PhD\chapter_1\cif\pc3p\CASQES.pc3p.pdb
Pd         6.06200        6.74300        3.64800
Br         7.83700        5.02500        3.80000
Br         7.77400        8.49100        3.26400
P          4.46800        5.20100        4.05900
P          4.49200        8.28200        3.15700
C          3.02400        5.80100        5.02000
H          2.30700        5.15800        4.91000
H          3.27000        5.79600        5.95800
C          2.46400        7.18100        4.69400
H          2.81300        7.81000        5.34400
H          1.50100        7.15000        4.81100
C          2.75600        7.72500        3.30200
H          2.16300        8.46900        3.11700
H          2.58400        7.03200        2.64400
C          3.82700        4.53000        2.49800
C          2.52500        4.19400        2.31100
H          1.92300        4.27600        3.01600
C          2.09000        3.73200        1.09200
H          1.19100        3.51700        0.98600
C          2.92400        3.58200        0.04400
H          2.61300        3.27500       -0.77700
C          4.22400        3.89000        0.22600
H          4.81800        3.78500       -0.48100
C          4.69900        4.36300        1.44500
H          5.60200        4.56500        1.54900
C          5.00700        3.77200        5.04800
C          5.02600        2.49500        4.53900
H          4.73200        2.33700        3.67100
C          5.48000        1.44600        5.31700
H          5.50900        0.58700        4.96300
C          5.88800        1.66300        6.60800
H          6.17300        0.95100        7.13500
C          5.87300        2.92400        7.11600
H          6.15800        3.06900        7.99000
C          5.44400        3.99500        6.35600
H          5.44600        4.85600        6.71200
C          4.67800        8.79300        1.42200
C          4.20300        7.95000        0.42300
H          3.73900        7.17400        0.63900
C          4.43200        8.29200       -0.91100
H          4.10600        7.73900       -1.58400
C          5.11700        9.40600       -1.24700
H          5.26500        9.61400       -2.14200
C          5.59600       10.23300       -0.25800
H          6.06700       11.00300       -0.48100
C          5.37800        9.92100        1.06000
H          5.71000       10.48200        1.72200
C          4.51300        9.78100        4.16500
C          5.26700        9.88200        5.31900
H          5.82500        9.18300        5.57400
C          5.19200       11.02700        6.09600
H          5.70800       11.09400        6.86700
C          4.37300       12.05100        5.74700
H          4.33800       12.81800        6.27200
C          3.60100       11.95600        4.62700
H          3.03100       12.65500        4.39900
C          3.65700       10.82700        3.82600
H          3.12500       10.76800        3.06600
