77
C:\Users\Javier\OneDrive - Universitat de Barcelona\Tesi\4 - Contribucions\Treballs\3-PhD\chapter_1\cif\pc3p\COQLOL.pc3p.pdb
Rh         4.56600        3.80800        3.03900
Cl         6.41600        3.53900        1.23000
P          2.94100        3.41300        1.44300
P          4.45400        6.05400        2.42800
C          4.88900        1.70800        3.50200
H          4.70100        1.09300        2.73500
C          3.74800        2.11100        4.19000
H          2.89700        1.74000        3.82000
C          3.72200        2.33300        5.69500
H          2.81500        2.12400        6.03300
H          4.35600        1.70500        6.12300
C          4.08100        3.74300        6.09700
H          3.24600        4.25400        6.24500
H          4.56900        3.71300        6.95800
C          4.92100        4.47600        5.09500
H          4.89000        5.47000        5.20100
C          6.10300        4.01900        4.55900
H          6.77300        4.73700        4.37100
C          6.71500        2.66900        4.93600
H          7.70000        2.73800        4.85900
H          6.50400        2.48400        5.88600
C          6.25600        1.51600        4.11600
H          6.23900        0.70500        4.68500
H          6.91300        1.36000        3.39000
C          3.18800        4.23600       -0.16400
H          4.02600        3.89600       -0.56400
H          2.44600        3.97800       -0.76500
C          3.26000        5.77200       -0.11400
H          3.25200        6.12100       -1.03900
H          2.45200        6.11400        0.34400
C          4.50000        6.31700        0.60600
H          4.57700        7.28700        0.42300
H          5.30500        5.87500        0.23800
C          2.82000        1.67000        0.86700
C          1.72200        0.86900        1.10700
H          1.00900        1.19200        1.64700
C          1.66000       -0.40700        0.56400
H          0.89000       -0.94400        0.70800
C          2.70400       -0.89900       -0.18200
H          2.65600       -1.77200       -0.54900
C          3.82200       -0.12100       -0.39900
H          4.54900       -0.46400       -0.90600
C          3.88000        1.16000        0.12600
H          4.65100        1.69500       -0.02000
C          1.20500        3.78200        1.87000
C          0.20200        3.85300        0.93200
H          0.42100        3.77300        0.01100
C         -1.11900        4.03800        1.29900
H         -1.79500        4.08600        0.63300
C         -1.45000        4.15500        2.62000
H         -2.35600        4.28600        2.87800
C         -0.45600        4.08100        3.57900
H         -0.68000        4.14400        4.50000
C          0.85500        3.91700        3.20300
H          1.53300        3.89800        3.86700
C          5.88700        7.08500        2.93800
C          7.15100        6.81900        2.40100
H          7.26500        6.10200        1.79000
C          8.23500        7.60000        2.75700
H          9.09300        7.40400        2.40100
C          8.08100        8.64800        3.61300
H          8.82500        9.19800        3.82400
C          6.86000        8.91100        4.17000
H          6.76300        9.62700        4.78600
C          5.76000        8.12800        3.83600
H          4.91500        8.31100        4.22900
C          3.03800        7.08200        2.94700
C          2.69200        8.24900        2.26800
H          3.17900        8.49700        1.48900
C          1.65900        9.05100        2.70300
H          1.43600        9.84000        2.22400
C          0.95500        8.70800        3.82500
H          0.23600        9.25400        4.12300
C          1.28200        7.59300        4.50600
H          0.79700        7.36300        5.29100
C          2.31600        6.77600        4.07400
H          2.52800        5.99400        4.56700
