72
C:\Users\Javier\OneDrive - Universitat de Barcelona\Tesi\4 - Contribucions\Treballs\3-PhD\chapter_1\cif\pc3p\COQMAY.pc3p.pdb
Rh         5.15900        4.19800        5.95500
Cl         5.30000        3.55100        3.47900
P          5.09700        6.47800        5.38800
P          7.41700        4.32700        6.04100
C          6.40800        7.00300        4.20900
H          6.23800        6.55800        3.34100
H          6.31900        7.97800        4.06200
C          7.85300        6.71200        4.61900
H          8.01200        7.09600        5.51700
H          8.46100        7.17000        3.98500
C          8.20900        5.22400        4.65100
H          9.19200        5.12900        4.72500
H          7.92800        4.80700        3.79800
C          8.22000        2.68700        5.95100
C          8.22300        2.00200        4.73600
H          7.80900        2.38600        3.97300
C          8.83300        0.75700        4.64500
H          8.85300        0.30300        3.81100
C          9.40900        0.17300        5.76000
H          9.82400       -0.67800        5.69200
C          9.37800        0.83400        6.96600
H          9.76400        0.43100        7.73600
C          8.78500        2.08300        7.06500
H          8.76500        2.53100        7.90400
C          8.20600        5.10400        7.50000
C          9.59700        5.14200        7.61400
H         10.13500        4.74700        6.93700
C         10.20300        5.74900        8.70200
H         11.15100        5.76500        8.77200
C          9.42500        6.32700        9.68400
H          9.83800        6.74300       10.43100
C          8.05200        6.30600        9.58500
H          7.52300        6.70900       10.26300
C          7.43500        5.69700        8.49500
H          6.48600        5.68800        8.43100
C          5.17000        7.69800        6.75800
C          5.92400        8.86500        6.73500
H          6.48000        9.05100        5.98700
C          5.87200        9.76300        7.79400
H          6.40300       10.55200        7.76800
C          5.06600        9.52400        8.87000
H          5.01200       10.15600        9.57800
C          4.32600        8.35200        8.92000
H          3.77000        8.17300        9.67100
C          4.39300        7.44700        7.88500
H          3.90100        6.63700        7.94100
C          3.64100        7.08700        4.44300
C          3.36900        8.44700        4.32200
H          3.90700        9.07700        4.78800
C          2.32000        8.89400        3.52900
H          2.15100        9.82500        3.44300
C          1.52000        7.97700        2.86300
H          0.79900        8.27700        2.32300
C          1.77800        6.62400        2.98900
H          1.22300        5.99500        2.54400
C          2.84200        6.18000        3.76300
H          3.02400        5.24900        3.82800
C          5.00200        2.30300        6.92400
H          5.76900        1.90000        6.53400
C          4.97500        3.33800        7.88600
H          5.72400        3.77100        8.27900
C          3.49800        3.62400        8.16900
H          3.27900        4.13500        9.00100
C          3.08300        4.24800        6.82500
H          2.85500        5.15700        6.66700
C          3.10500        3.23500        5.90200
H          2.89600        3.30600        4.97800
C          3.52900        1.97200        6.64300
H          3.33500        1.09600        6.20000
C          2.88900        2.21900        8.01700
H          3.20500        1.58500        8.70900
H          1.90000        2.22900        7.98400
