95
C:\Users\Javier\OneDrive - Universitat de Barcelona\Tesi\4 - Contribucions\Treballs\3-PhD\chapter_1\cif\pc3p\CUDQIC.pc3p.pdb
Ru         2.54500        3.17100        3.24900
P          4.17900        1.55900        3.61000
P          3.15700        4.41200        5.09100
P          0.18800        9.33200        2.70600
Cl         1.02200        1.92900        4.63600
F          0.69400       10.36900        1.59200
F         -0.47600        8.38000        3.79700
F          1.27400        8.31200        2.39200
F         -1.09800       10.36300        2.96300
F         -0.73900        8.66000        1.57300
F          0.88100       10.14400        3.87800
N          0.76000        4.95000        1.59200
N          0.92500        4.49100        2.86400
N          1.61200        3.10700        0.35300
N          1.84200        2.24400        1.38500
N          3.02900        4.91700        0.88000
N          3.68200        4.33200        1.92800
C          1.68400        4.53800        0.56700
H          1.42400        4.99100       -0.28600
C         -0.41100        5.62300        1.45500
H         -0.74900        6.01700        0.65900
C         -1.00700        5.62100        2.67700
H         -1.83500        6.02800        2.90900
C         -0.15200        4.90100        3.52400
H         -0.32100        4.73100        4.44400
C          1.40100        2.45600       -0.81400
H          1.23700        2.85000       -1.66300
C          1.46800        1.13200       -0.53200
H          1.35500        0.41200       -1.14100
C          1.73800        1.04200        0.83700
H          1.83500        0.22500        1.31300
C          3.88500        5.63800        0.10800
H          3.66700        6.10800       -0.68700
C          5.10900        5.56200        0.68700
H          5.91100        5.97400        0.39100
C          4.94400        4.74800        1.81200
H          5.64000        4.52100        2.41800
C          4.89200        1.43000        5.29100
H          4.24100        0.95900        5.86800
H          5.70400        0.86700        5.24000
C          5.26600        2.74800        5.96900
H          5.84100        2.55800        6.75400
H          5.78900        3.30200        5.33700
C          4.04000        3.53300        6.42700
H          4.32500        4.19500        7.10600
H          3.40900        2.90800        6.86400
C          5.61100        1.75300        2.49600
C          5.34500        1.72300        1.12700
H          4.46800        1.52200        0.82400
C          6.34000        1.97700        0.21100
H          6.14600        1.95400       -0.71800
C          7.61900        2.26700        0.64100
H          8.29900        2.48000        0.01000
C          7.90800        2.24500        1.98800
H          8.79700        2.40300        2.28100
C          6.91200        1.99500        2.92000
H          7.12000        1.98700        3.84700
C          3.86200       -0.25100        3.37900
C          2.61500       -0.83100        3.53400
H          1.86600       -0.27500        3.71500
C          2.43500       -2.20200        3.43200
H          1.56700       -2.57600        3.52700
C          3.52100       -3.02400        3.18800
H          3.40100       -3.96300        3.11000
C          4.76600       -2.48000        3.06000
H          5.51400       -3.04500        2.91200
C          4.94500       -1.10300        3.14500
H          5.81600       -0.73700        3.04100
C          4.21000        5.87700        4.74100
C          5.38600        6.16600        5.43100
H          5.69100        5.57900        6.11200
C          6.11400        7.30900        5.12900
H          6.92500        7.48400        5.59000
C          5.67400        8.18100        4.17800
H          6.17800        8.96300        3.98600
C          4.50200        7.93300        3.49300
H          4.18900        8.54800        2.84000
C          3.78400        6.77800        3.76600
H          2.98700        6.59700        3.28000
C          1.78500        5.18900        6.05900
C          1.44900        6.52500        5.93100
H          1.95300        7.07800        5.34500
C          0.39200        7.07800        6.64200
H          0.17700        7.99700        6.53700
C         -0.34000        6.29400        7.49100
H         -1.05500        6.67000        7.98900
C         -0.03600        4.95500        7.61800
H         -0.56100        4.40700        8.19000
C          1.03100        4.39500        6.91800
H          1.24200        3.47400        7.02600
F          0.45300       10.62000        1.80200
F          0.32400        8.01200        3.52200
F          1.69600        8.78900        1.80200
F         -0.81900       10.05900        3.47800
F          1.29400        9.92300        3.72600
