69
C:\Users\Javier\OneDrive - Universitat de Barcelona\Tesi\4 - Contribucions\Treballs\3-PhD\chapter_1\cif\pc3p\DOGPAS.pc3p.pdb
Pd         1.94600       -0.12700        3.82000
P          0.27200       -0.07700        5.46100
P          1.11000        1.58700        2.62500
O          2.87100       -1.64300        4.88400
H          3.69700       -1.49300        4.92300
C         -0.45200       -1.67800        5.94100
C          0.04300       -2.85700        5.38800
H          0.80600       -2.83000        4.82300
C         -0.57400       -4.06700        5.66100
H         -0.22900       -4.86900        5.28700
C         -1.70000       -4.11500        6.47800
H         -2.13200       -4.94400        6.64900
C         -2.18600       -2.94400        7.04300
H         -2.95100       -2.97300        7.60800
C         -1.56800       -1.74300        6.78800
H         -1.90000       -0.94700        7.19000
C          0.99600        0.61400        6.98500
C          0.56800        1.80600        7.57200
H         -0.16800        2.27800        7.20400
C          1.21900        2.30700        8.70000
H          0.92000        3.12000        9.09300
C          2.29000        1.63800        9.25000
H          2.73000        1.98500       10.02000
C          2.72000        0.45400        8.67400
H          3.45200       -0.01700        9.05600
C          2.09200       -0.05100        7.54000
H          2.41000       -0.85200        7.14000
C         -1.23500        0.92200        5.16600
H         -1.88500        0.37000        4.66200
H         -1.64300        1.14100        6.04000
C         -1.00500        2.22500        4.39700
H         -0.27000        2.72900        4.82600
H         -1.82300        2.78000        4.44800
C         -0.65400        1.99100        2.92200
H         -0.88400        2.80600        2.40800
H         -1.21200        1.25000        2.57500
C          1.20600        1.61200        0.79700
C          2.45600        1.59000        0.17600
H          3.24500        1.58200        0.70600
C          2.56000        1.57900       -1.21000
H          3.41600        1.53700       -1.61900
C          1.41900        1.62900       -1.99700
H          1.49100        1.63400       -2.94300
C          0.17900        1.67300       -1.39700
H         -0.60500        1.71700       -1.93300
C          0.06900        1.65000       -0.00200
H         -0.79000        1.66100        0.40100
C          1.88600        3.16200        3.11500
C          1.61800        4.33500        2.40200
H          1.10000        4.29600        1.60500
C          2.10400        5.55200        2.84800
H          1.91200        6.34700        2.36100
C          2.86800        5.61500        4.00400
H          3.19700        6.45100        4.31400
C          3.14900        4.45600        4.70000
H          3.68100        4.49800        5.48500
C          2.66400        3.23000        4.26500
H          2.86200        2.44000        4.75200
C          3.56000       -0.22800        2.58300
C          3.56100       -1.05900        1.46600
H          2.77900       -1.55600        1.25400
C          4.68300       -1.17800        0.65500
H          4.65600       -1.73900       -0.11000
C          5.83800       -0.48300        0.96000
H          6.60400       -0.56100        0.40500
C          5.86900        0.32300        2.07400
H          6.66600        0.79300        2.29400
C          4.74300        0.45400        2.88300
H          4.77900        1.01500        3.64900
