117
C:\Users\Javier\OneDrive - Universitat de Barcelona\Tesi\4 - Contribucions\Treballs\3-PhD\chapter_1\cif\pc3p\DUQMAE.pc3p.pdb
N          4.44300       14.25600        2.33900
H          5.11700       13.74100        2.19400
C          4.76000       15.48700        2.43000
C          3.17400       12.67100        3.71600
H          3.22000       13.25300        4.47700
H          3.94900       12.10400        3.69900
H          2.38300       12.13000        3.77500
C          3.04600       12.62900        1.21900
H          3.80500       12.04100        1.20000
H          3.04200       13.17300        0.42900
H          2.24000       12.10700        1.25300
C          6.22400       15.79000        2.13000
H          6.38100       16.73200        2.22400
H          6.43000       15.51900        1.23300
H          6.78400       15.30800        2.74600
C          3.12500       13.50900        2.43500
C          0.70300       18.85400        2.46100
C          1.82600       19.25600        5.05200
H          1.36700       20.10900        5.12100
H          1.19800       18.56400        5.31000
C          3.37400       17.82000        6.42600
H          2.55900       17.31200        6.56500
H          3.85700       17.83800        7.26500
C          6.02200       17.77400        5.32500
C          4.66100       15.31600        5.89300
C          0.18600       19.86400        1.68700
H          0.64800       20.66400        1.59200
C          0.03600       17.67400        2.59300
H          0.40200       16.99400        3.11300
C          3.09800       20.55900        2.83100
C          4.33700       20.55400        2.13000
H          4.71400       19.75300        1.84600
C          4.95900       21.72900        1.88300
H          5.78700       21.71700        1.46000
C          1.93100       14.45100        2.50200
H          2.00300       15.00200        3.28500
H          1.12100       13.93800        2.54500
H          1.91700       15.00700        1.72000
C          2.55300       21.80500        3.18200
H          1.74000       21.82900        3.63200
C          3.00400       19.24800        6.03800
H          3.77100       19.68300        5.63100
H          2.76400       19.74800        6.83400
C          3.80300       14.75500        6.83600
H          3.08500       15.25600        7.15000
C          5.75700       14.53400        5.45900
H          6.35800       14.88700        4.84300
C          4.40700       22.95400        2.23600
H          4.84400       23.75300        2.04600
C          3.16000       22.94100        2.89300
H          2.75900       23.74700        3.12900
C          6.45800       18.64800        4.37200
H          5.95000       18.78600        3.60600
C          3.99100       13.46500        7.31600
H          3.39700       13.11100        7.93700
C          5.06700       12.70200        6.87400
H          5.19400       11.83800        7.19600
C         -1.05800       19.67600        1.03600
H         -1.41800       20.35800        0.51400
C          7.65600       19.33700        4.54000
H          7.94900       19.93100        3.88700
C          5.94900       13.24400        5.94200
H          6.67100       12.74100        5.64200
C          6.78200       17.57500        6.46700
H          6.48300       16.99300        7.12800
B          1.80800       17.66900       -1.31000
H          0.78600       17.84300       -0.94500
C          7.99700       18.24800        6.62700
H          8.52500       18.09200        7.37500
B          4.82500       18.04300       -1.08300
H          5.71700       18.43800       -0.57400
B          3.17300       18.93200       -1.15000
H          3.01100       19.91600       -0.68600
C          8.40200       19.13400        5.67400
H          9.19300       19.60700        5.79400
B          3.53700       17.49100       -3.61600
H          3.59900       17.53200       -4.71400
B          2.44400       18.52300       -2.70900
H          1.80700       19.25500       -3.22600
B          2.63600       15.95800       -1.36400
H          2.13700       15.03100       -1.04800
B          2.11800       16.80900       -2.80700
H          1.25800       16.41900       -3.37300
B          4.47200       16.21200       -1.19200
H          5.12900       15.44600       -0.75200
B          4.20300       18.76600       -2.55300
H          4.69900       19.66000       -2.95700
B          3.70100       15.96700       -2.74300
H          3.88900       15.02400       -3.27800
B          4.98600       17.21700       -2.60600
H          5.98600       17.10300       -3.04900
C          3.63200        3.68500       10.08600
N          2.88100        2.84500       10.12800
C          2.71900        8.38000        9.87100
H          3.09600        8.30600       10.75000
H          3.14800        7.75200        9.28500
H          1.77800        8.18900        9.90900
C          4.61400        4.77100        9.98300
H          5.01900        4.75200        9.11400
H          5.28600        4.65800       10.65600
H          4.16800        5.61200       10.11000
C          2.90500        9.64200        9.39900
C          5.45400        7.83300        6.75800
N          3.14500       10.73900        9.09900
N          5.11500        7.08400        7.51900
C          5.91200        8.65400        5.79200
H          6.84000        8.84400        5.94100
H          5.41000        9.47200        5.79500
H          5.81200        8.22500        4.93200
C         -1.73300       18.48700        1.17100
H         -2.54700       18.36200        0.74200
C         -1.19500       17.47400        1.95300
H         -1.64900       16.66800        2.05200
Sn         3.25000       17.29000        0.44000
Pd         3.62200       17.08700        2.97400
P          4.39800       16.96000        5.17100
P          2.32000       18.99000        3.31100
