108
C:\Users\Javier\OneDrive - Universitat de Barcelona\Tesi\4 - Contribucions\Treballs\3-PhD\chapter_1\cif\pc3p\EBETUD.pc3p.pdb
Ru         3.58500        5.13700        1.43300
S          1.72100        5.73400        2.82600
P          3.58600        7.16100        0.35400
P          2.06700        4.33500       -0.09600
N          3.13800        3.63300        2.86000
N          1.41500        3.62700        4.52600
N          5.32200        4.08000        0.85500
N          5.02100        5.77000        2.88000
C          2.07600        4.19800        3.51600
C          3.55400        2.44500        3.27300
H          4.27400        2.04000        2.84500
C          2.93700        1.80400        4.32700
H          3.22900        0.97400        4.62900
C          1.86600        2.44700        4.90800
H          1.43300        2.02400        5.61600
C          5.38500        3.12000       -0.09400
H          4.70100        3.06700       -0.72100
C          6.42300        2.21700       -0.17100
H          6.43000        1.56800       -0.83700
C          7.44000        2.28200        0.73900
H          8.13800        1.67200        0.71000
C          7.41200        3.26500        1.69400
H          8.09800        3.32400        2.32100
C          6.36300        4.17000        1.73200
C          6.24400        5.19700        2.76600
C          7.29800        5.57500        3.58600
H          8.13500        5.17700        3.49000
C          7.09600        6.53900        4.53700
H          7.80400        6.82400        5.07000
C          5.85900        7.07800        4.69700
H          5.70100        7.71500        5.35700
C          4.83900        6.65900        3.86200
H          3.98900        7.01300        3.98700
C          4.69900        7.46900       -1.04800
C          4.32600        8.20700       -2.17700
H          3.48400        8.60000       -2.21200
C          5.18800        8.35600       -3.23300
H          4.91900        8.85200       -3.97200
C          6.43900        7.79200       -3.22900
H          7.01200        7.88800       -3.95600
C          6.81500        7.08200       -2.12600
H          7.67000        6.71600       -2.09100
C          5.95600        6.89700       -1.05200
H          6.22900        6.38300       -0.32900
C          3.98000        8.55900        1.47100
C          3.02300        9.07400        2.35200
H          2.15600        8.73400        2.33200
C          3.33900       10.07400        3.25300
H          2.68200       10.41400        3.81600
C          4.61800       10.56900        3.31200
H          4.83500       11.22600        3.93400
C          5.58200       10.08700        2.44400
H          6.44700       10.42800        2.47000
C          5.26100        9.10200        1.54100
H          5.91500        8.78900        0.96000
C          1.92800        7.69300       -0.20800
H          1.37600        7.82700        0.57600
H          2.02400        8.55500       -0.64200
C          1.27700        2.81100        0.52400
C          0.08600        2.85400        1.26700
H         -0.40300        3.64300        1.31700
C         -0.35900        1.72700        1.91800
H         -1.14700        1.76600        2.40900
C          0.33600        0.55100        1.86100
H          0.02800       -0.19500        2.32100
C          1.48300        0.47800        1.12400
H          1.95600       -0.32100        1.06300
C          1.93700        1.61500        0.46700
H          2.72200        1.56000       -0.02800
C          2.48700        3.87100       -1.81900
C          1.63600        3.02100       -2.55400
H          0.92600        2.60600       -2.11700
C          1.82400        2.79100       -3.88800
H          1.26000        2.21300       -4.35300
C          2.86800        3.42900       -4.54200
H          2.98900        3.29500       -5.45300
C          3.72500        4.25500       -3.86400
H          4.42800        4.66800       -4.31100
C          3.53900        4.47900       -2.50300
H          4.12300        5.03800       -2.04500
C          0.70500        5.47100       -0.49500
H          0.08600        5.02000       -1.09200
H          0.22500        5.68700        0.32000
C          1.17500        6.77500       -1.16000
H          1.74900        6.55800       -1.90900
H          0.40200        7.24700       -1.50600
P          1.12600       10.23300       -4.07000
F          2.42600       10.72100       -3.44100
F          1.61400        8.74400       -4.08800
F          0.60600        9.99300       -2.64600
F          0.56500       11.66900       -3.99400
F          1.63000       10.45100       -5.48600
F         -0.20600        9.73100       -4.73700
O         -1.67100        5.08500       -5.48000
C         -0.90200        5.84400       -4.64700
H         -0.34600        6.45000       -5.16200
H         -0.32500        5.27400       -4.11200
C         -1.85000        6.62700       -3.75300
H         -2.32400        7.27400       -4.28100
H         -1.34600        7.07600       -3.07100
H         -2.47600        6.02500       -3.34500
C         -0.90200        4.32600       -6.31300
H         -0.34600        3.72000       -5.79800
H         -0.32500        4.89600       -6.84700
C         -1.85000        3.54300       -7.20700
H         -2.32400        2.89600       -6.67900
H         -1.34600        3.09400       -7.88900
H         -2.47600        4.14500       -7.61500
