72
C:\Users\Javier\OneDrive - Universitat de Barcelona\Tesi\4 - Contribucions\Treballs\3-PhD\chapter_1\cif\pc3p\ELOTAA.pc3p.pdb
Pd         7.25900        1.90100       -6.17900
I          8.91600        1.35900       -4.19500
I          5.38900        2.43000       -4.40600
P          8.83400        1.34600       -7.77500
P          5.72600        2.34100       -7.80400
F          8.66500       -2.25000       -8.69900
F          7.71700       -1.34000       -6.99400
F          8.82000       -3.14600       -6.78100
F         12.37800        2.04200      -10.68000
F         11.03100        0.64000       -9.82600
F         10.34600        1.82100      -11.45000
C          6.50600        2.80000       -9.41000
H          5.79600        3.13400      -10.01500
H          7.13400        3.54700       -9.25000
C          7.26300        1.68100      -10.12900
H          7.91600        2.10200      -10.74100
H          6.61400        1.18700      -10.68900
C          8.01400        0.66000       -9.27500
H          8.70300        0.22500       -9.83900
H          7.37700       -0.04200       -8.99100
C         10.16300        0.19800       -7.23300
C         11.35200        0.79600       -6.80100
H         11.41200        1.74400       -6.80800
C         12.46100        0.05700       -6.35300
H         13.24000        0.49600       -6.03200
C         12.39500       -1.35500       -6.39400
H         13.16300       -1.88400       -6.21400
C         11.17400       -1.95400       -6.70200
H         11.10100       -2.89900       -6.63500
C         10.05700       -1.22400       -7.10700
C          8.82700       -2.00600       -7.39000
C          9.75300        2.83600       -8.33900
C          9.45800        3.98000       -7.61500
H          8.83700        3.92000       -6.90000
C         10.02300        5.18700       -7.89400
H          9.82100        5.93400       -7.34300
C         10.85400        5.34100       -8.92600
H         11.20800        6.19700       -9.14000
C         11.20600        4.17800       -9.71600
H         11.80700        4.25600      -10.44700
C         10.65700        2.96400       -9.39200
C         11.11800        1.86700      -10.34100
C          4.68400        0.88000       -8.10500
C          3.79000        0.82600       -9.17400
H          3.66700        1.58500       -9.73400
C          3.09900       -0.31800       -9.41000
H          2.46300       -0.34700      -10.11600
C          3.31200       -1.45100       -8.62700
H          2.85700       -2.26200       -8.82100
C          4.17200       -1.38400       -7.59500
H          4.29500       -2.14500       -7.04200
C          4.87900       -0.23000       -7.32500
H          5.49700       -0.20600       -6.60300
C          4.57000        3.72700       -7.56600
C          5.03800        5.02800       -7.70500
H          5.95800        5.18400       -7.88500
C          4.15400        6.11300       -7.58400
H          4.45600        7.00200       -7.72500
C          2.82700        5.86200       -7.25100
H          2.22200        6.58800       -7.15000
C          2.38600        4.59400       -7.07100
H          1.47700        4.45000       -6.83700
C          3.21600        3.52000       -7.21700
H          2.88500        2.64000       -7.08400
C         -0.63100       -1.82400        2.22000
Cl        -0.59600       -0.09500        2.07600
Cl        -2.05300       -2.39200        2.96400
Cl        -0.42300       -2.53300        0.65700
C          6.24600       14.18000        0.52000
Cl         3.02800       13.65900        0.20000
Cl         5.17800       11.88800        0.02000
Cl         3.28000       10.84700        1.44400
