68
C:\Users\Javier\OneDrive - Universitat de Barcelona\Tesi\4 - Contribucions\Treballs\3-PhD\chapter_1\cif\pc3p\ELOTOO.pc3p.pdb
Pd         4.41700       14.54600        0.48900
P          5.43300       13.10000       -0.87700
P          2.88700       14.98100       -1.09800
Cl         3.20200       15.85200        2.02900
Cl         6.12900       14.11600        2.04700
F          3.75300       11.01200        0.41700
F          7.11000        8.42800        2.41400
F          8.31500       12.20500       -0.01300
F          6.62600       15.95500       -0.87700
F         10.23100       15.15200       -3.73400
F          7.26200       11.67000       -2.79200
C          4.35400       12.39100       -2.17500
H          4.82100       11.63700       -2.59300
H          3.54300       12.04100       -1.75300
C          3.94800       13.38100       -3.26900
H          3.20900       12.98700       -3.77800
H          4.70400       13.48400       -3.88500
C          3.51800       14.77100       -2.80600
H          2.82200       15.08600       -3.42000
H          4.28600       15.36900       -2.91400
C          2.36100       16.71500       -1.18500
C          3.33600       17.71000       -1.13600
H          4.23300       17.47900       -0.97900
C          2.99000       19.02500       -1.31700
H          3.65400       19.69000       -1.28800
C          1.68000       19.37800       -1.53800
H          1.45100       20.28200       -1.65600
C          0.70200       18.40300       -1.58700
H         -0.19200       18.64500       -1.74500
C          1.03900       17.07300       -1.40500
H          0.37200       16.41300       -1.42900
C          1.42900       13.93100       -0.92400
C          0.61300       13.62200       -2.00600
H          0.79300       13.98300       -2.85500
C         -0.48100       12.77100       -1.82000
H         -1.03600       12.55600       -2.55000
C         -0.75100       12.24800       -0.58200
H         -1.49800       11.68800       -0.46500
C          0.06100       12.53300        0.49100
H         -0.12000       12.15900        1.33400
C          1.14600       13.37500        0.32200
H          1.69900       13.57500        1.05700
C          6.01300       11.65000        0.06800
C          7.33700       11.36500        0.41300
C          7.73400       10.30500        1.17900
H          8.64100       10.14200        1.36400
C          6.75000        9.49100        1.66100
C          5.41900        9.69700        1.42700
H          4.76200        9.13300        1.79100
C          5.09100       10.77400        0.63500
C          6.86800       13.76600       -1.78100
C          7.62400       12.95900       -2.64100
C          8.74900       13.39500       -3.31100
H          9.23500       12.82900       -3.88400
C          9.12000       14.69200       -3.09700
C          8.43800       15.55800       -2.28200
H          8.72100       16.44800       -2.16100
C          7.32400       15.06400       -1.65400
S          6.32000       17.85500        4.42300
O          6.94400       18.83300        5.33300
C          7.16900       16.33900        4.68400
H          8.09000       16.43000        4.39400
H          6.73800       15.63600        4.17400
H          7.14700       16.11500        5.62800
C          4.75000       17.40200        5.16400
H          4.90400       17.04700        6.05500
H          4.31700       16.72800        4.61800
H          4.18300       18.18500        5.22400
