70
C:\Users\Javier\OneDrive - Universitat de Barcelona\Tesi\4 - Contribucions\Treballs\3-PhD\chapter_1\cif\pc3p\ELOTII.pc3p.pdb
Pd        15.50000        8.67700       12.91100
P         14.73500       10.19000       11.42800
P         16.31600       10.36300       14.18000
Cl        14.84400        6.94300       11.45300
Cl        16.43400        7.10100       14.38100
C         14.02000       11.72300       12.09000
H         13.77000       12.29900       11.32400
H         13.18400       11.48900       12.56700
C         14.88100       12.54700       13.03400
H         14.39500       13.38000       13.25800
H         15.71000       12.80500       12.56000
C         15.26400       11.84600       14.33300
H         14.43100       11.58700       14.80100
H         15.73400       12.50100       14.90900
C         16.65800        9.99900       15.93100
C         15.56500        9.77300       16.77300
H         14.68300        9.78300       16.42100
C         15.77600        9.53700       18.11800
H         15.04000        9.36100       18.69300
C         17.06400        9.55500       18.62900
H         17.20600        9.40900       19.55800
C         18.12900        9.78300       17.80900
H         19.01000        9.77000       18.16400
C         17.93700       10.03400       16.44900
H         18.67700       10.22700       15.88700
C         17.88900       10.88900       13.45000
C         18.28500       12.23200       13.41700
H         17.73000       12.90500       13.79400
C         19.50100       12.57400       12.82700
H         19.76600       13.48600       12.78700
C         20.32400       11.60100       12.30300
H         21.15900       11.84100       11.92000
C         19.93600       10.27500       12.33500
H         20.50500        9.60800       11.96800
C         18.72200        9.91300       12.90000
H         18.45800        9.00100       12.91200
C         16.12500       10.68700       10.34300
C         17.00000        9.69600        9.87600
H         16.86600        8.78800       10.11900
C         18.06800       10.05400        9.05500
C         18.29600       11.36500        8.73000
H         19.03400       11.59900        8.17900
C         17.44800       12.34600        9.20700
C         16.35100       12.01200       10.00400
H         15.76200       12.69000       10.31200
C         13.44100        9.58900       10.28700
C         12.09600        9.81200       10.54700
H         11.84000       10.31800       11.30900
C         11.11100        9.29000        9.69000
C         11.47300        8.58400        8.56800
H         10.80700        8.24600        7.98100
C         12.81300        8.36800        8.29800
C         13.79100        8.85700        9.14400
H         14.70600        8.69700        8.94900
C          9.66500        9.53000       10.00800
F          9.34500       10.80000        9.99500
F          9.36100        9.11400       11.24700
F          8.86500        8.85800        9.21700
C         13.19100        7.59200        7.07800
F         13.07500        8.34900        5.95800
F         12.36800        6.55900        6.86200
F         14.42400        7.15900        7.07900
C         18.96100        8.97700        8.52500
F         19.94500        9.44000        7.75800
F         18.28300        8.09800        7.77200
F         19.53300        8.25800        9.49900
C         17.72700       13.79400        8.90000
F         18.65200       13.96900        8.07300
F         17.97600       14.48700        9.97000
F         16.66400       14.42500        8.47800
