134
C:\Users\Javier\OneDrive - Universitat de Barcelona\Tesi\4 - Contribucions\Treballs\3-PhD\chapter_1\cif\pc3p\ERUXUK.pc3p.pdb
Ru         3.79700       13.03800        2.36200
S          4.34000       10.69800        2.80500
S          2.10300        6.96100        3.11900
S         -1.30500        6.33300        5.88600
P          1.58300       12.91900        3.01100
P          4.45200       13.47700        4.51300
N          3.33200        8.23900        2.48300
N          0.65400        6.03200        4.07500
N          0.50200        8.08300        4.88900
N          2.17900        9.46200        3.96600
H          1.96600       10.16200        4.41800
C          4.60100       12.67200        0.26600
C          3.51300       13.53500        0.17700
C          3.82400       14.74700        0.92000
C          5.14300       14.58300        1.44500
C          5.61800       13.28600        1.08400
C          4.77100       11.37500       -0.44400
H          5.61500       10.98500       -0.20200
H          4.74800       11.52300       -1.39300
H          4.06100       10.77900       -0.19600
C          2.33000       13.37800       -0.76500
H          1.71600       14.10400       -0.63200
H          1.88600       12.54700       -0.58500
H          2.64200       13.38500       -1.67300
C          3.08300       16.05300        0.87200
H          2.21800       15.91400        0.47800
H          3.57700       16.68200        0.34400
H          2.97900       16.39500        1.76300
C          5.96700       15.68000        2.03500
H          6.81400       15.32500        2.31800
H          5.51000       16.05300        2.79000
H          6.11100       16.36200        1.37600
C          6.97800       12.73900        1.31900
H          7.02700       11.84300        0.97700
H          7.16100       12.73200        2.26100
H          7.62600       13.28800        0.87200
C          1.21700       12.48200        4.77400
H          0.30800       12.76400        4.95600
H          1.23100       11.51400        4.83900
C          2.09200       13.02200        5.90100
H          1.71900       12.73900        6.75000
H          2.07200       13.99100        5.87700
C          3.54400       12.55400        5.81900
H          3.56800       11.60600        5.62100
H          3.97800       12.69500        6.67400
C          0.56400       11.60100        2.19800
C         -0.75100       11.39100        2.57700
H         -1.15100       11.97100        3.18500
C         -1.47100       10.34300        2.06700
H         -2.34700       10.20600        2.34700
C         -0.91800        9.50200        1.15400
H         -1.40900        8.78600        0.81800
C          0.38200        9.71700        0.72800
H          0.75800        9.15800        0.08600
C          1.12000       10.75700        1.25300
H          1.99600       10.89100        0.97000
C          0.46200       14.35500        2.71700
C         -0.29500       14.45300        1.56200
H         -0.21700       13.79200        0.91200
C         -1.16600       15.51200        1.35200
H         -1.64700       15.56800        0.55800
C         -1.31400       16.46700        2.30800
H         -1.90800       17.17000        2.17700
C         -0.58400       16.38800        3.46300
H         -0.67700       17.05100        4.10800
C          0.29800       15.33100        3.68900
H          0.77300       15.28000        4.48600
C          6.20900       13.09300        4.90200
C          6.60200       11.78900        5.08400
H          5.97400       11.10800        5.02000
C          7.93900       11.47200        5.36700
H          8.19700       10.58600        5.47000
C          8.86000       12.47000        5.49000
H          9.73400       12.26500        5.73100
C          8.50800       13.75400        5.26600
H          9.16000       14.41500        5.29900
C          7.18200       14.11000        4.98400
H          6.94800       15.00000        4.85300
C          4.28000       15.15800        5.20200
C          3.53100       16.10400        4.52800
H          3.19200       15.90000        3.68700
C          3.27300       17.34700        5.07800
H          2.75500       17.96600        4.61700
C          3.79200       17.65900        6.31800
H          3.65000       18.50300        6.68100
C          4.48800       16.76300        6.98900
H          4.80500       16.98900        7.83300
C          4.77500       15.47900        6.48400
H          5.27200       14.86700        6.97700
C          5.49100        7.08700        2.19400
C          5.39700        5.75200        2.50600
H          4.64800        5.27500        2.22700
C          6.38300        5.09800        3.22100
H          6.30000        4.19100        3.41500
C          7.48700        5.80000        3.64400
H          8.14600        5.37800        4.14500
C          7.61400        7.13200        3.32300
H          8.38100        7.59400        3.57400
C          6.62300        7.78600        2.63300
H          6.70400        8.69400        2.45700
C          4.35400        7.81800        1.52400
H          4.70300        8.59800        1.06500
H          3.94900        7.23800        0.85900
C          3.20800        9.40200        3.06400
C          1.56000        8.30600        4.04700
C         -0.01000        6.77400        4.90500
C          0.30400        4.63500        3.82800
H         -0.36600        4.60100        3.12700
H         -0.08900        4.26300        4.63100
C         -0.08100        9.15300        5.66100
H         -0.99200        8.91100        5.88500
H         -0.11500        9.95000        5.10800
C          0.66400        9.48200        6.93900
C          1.89700        8.93600        7.25200
H          2.28800        8.32400        6.67200
C          2.55700        9.29000        8.41100
H          3.38500        8.91300        8.60500
C          1.99800       10.19500        9.27900
H          2.43900       10.43600       10.06200
C          0.76100       10.74600        8.96700
H          0.37300       11.35900        9.54900
C          0.10300       10.39800        7.80700
H         -0.72100       10.78100        7.60900
C          1.45900        3.79200        3.42600
C          1.50600        3.12700        2.21000
H          0.82400        3.23700        1.58700
C          2.60100        2.27600        1.92800
H          2.63700        1.82400        1.11500
C          3.60800        2.11300        2.84000
H          4.31900        1.54300        2.65300
C          3.56700        2.76400        3.98000
H          4.26200        2.66300        4.59000
C          2.50900        3.59700        4.28400
H          2.51000        4.04100        5.10000
