126
C:\Users\Javier\OneDrive - Universitat de Barcelona\Tesi\4 - Contribucions\Treballs\3-PhD\chapter_1\cif\pc3p\FAJROY.pc3p.pdb
Ru         7.83300        5.10700       12.93200
P          6.60000        5.84300       14.69500
P          7.43000        2.94400       13.52600
O          5.99600        5.88400       10.79300
N          4.95600        4.37800       12.06100
C          6.05800        5.04900       11.90000
C          3.95500        4.84500       11.10000
H          3.38700        5.49500       11.56500
C          4.76600        5.61700       10.04400
C          4.17200        6.94400        9.63100
H          3.94500        7.45100       10.41400
H          3.38000        6.79200        9.10700
H          4.81200        7.43200        9.10700
C          5.13700        4.78800        8.83400
H          5.51200        3.95300        9.12300
H          5.78300        5.26300        8.30700
H          4.35300        4.62100        8.30700
C          3.05200        3.75300       10.57400
C          1.80400        4.08600       10.04000
H          1.53300        4.97500       10.01100
C          0.96800        3.08500        9.55600
H          0.14400        3.30900        9.18500
C          1.35400        1.77000        9.61800
H          0.78200        1.10500        9.30600
C          2.58500        1.42800       10.13800
H          2.85300        0.53900       10.17400
C          3.41200        2.42900       10.60600
H          4.24200        2.20000       10.95400
C          8.77800        6.91800       11.96800
C          9.49000        6.65200       13.18400
C         10.11100        5.37200       13.08400
C          9.79300        4.87400       11.78300
C          9.01900        5.81600       11.09700
C          8.09800        8.19600       11.60400
H          8.06400        8.77000       12.37200
H          7.20700        8.01000       11.30500
H          8.58900        8.62900       10.90200
C          9.78400        7.64300       14.25700
H          9.25200        8.43000       14.12400
H         10.71500        7.87900       14.23100
H          9.57800        7.26000       15.11300
C         11.12800        4.76900       14.02300
H         11.37200        3.89600       13.71400
H         10.74900        4.70300       14.90400
H         11.90700        5.33000       14.05300
C         10.46900        3.65800       11.13000
H         10.94400        3.15900       11.79900
H         11.08400        3.95600       10.45700
H          9.80100        3.09800       10.72600
C          8.69700        5.80600        9.63100
H          8.14800        6.56600        9.41900
H          8.22400        5.00100        9.41300
H          9.50900        5.84800        9.12300
C          5.08800        4.88300       15.10900
H          4.59900        5.34500       15.80800
H          4.51700        4.83800       14.32600
C          5.40800        3.45900       15.58100
H          6.08600        3.50200       16.27300
H          4.61000        3.07100       15.97400
C          5.90500        2.53400       14.46200
H          5.18600        2.45200       13.81500
H          6.03500        1.65600       14.85200
C          7.32700        5.95500       16.38400
C          6.61500        6.50400       17.45700
H          5.76900        6.86300       17.31700
C          7.16200        6.51500       18.72200
H          6.68600        6.89700       19.42400
C          8.39200        5.97600       18.95600
H          8.74800        5.98700       19.81400
C          9.10000        5.42300       17.94100
H          9.93800        5.05400       18.11000
C          8.58600        5.40200       16.64400
H          9.07800        5.01800       15.95500
C          5.95600        7.53900       14.45600
C          6.51500        8.65200       15.07700
H          7.16500        8.53000       15.73000
C          6.12300        9.93800       14.74200
H          6.53100       10.66500       15.15500
C          5.14500       10.15000       13.81200
H          4.88300       11.01500       13.59100
C          4.55300        9.05600       13.20700
H          3.88000        9.19100       12.58000
C          4.94500        7.76900       13.51900
H          4.53200        7.04700       13.10000
C          7.22900        1.71900       12.15400
C          7.27800        2.12500       10.85600
H          7.43800        3.02000       10.66100
C          7.09100        1.21400        9.80900
H          7.13000        1.51000        8.92800
C          6.85100       -0.10400       10.06600
H          6.72300       -0.70800        9.37400
C          6.80200       -0.52000       11.37700
H          6.63800       -1.41500       11.56800
C          6.99100        0.37600       12.40700
H          6.96100        0.07600       13.28500
C          8.73000        2.07800       14.50400
C          9.74300        1.36900       13.88300
H          9.72500        1.27300       12.96000
C         10.79000        0.79200       14.60900
H         11.46100        0.31900       14.17300
C         10.81100        0.93300       15.98100
H         11.49800        0.55300       16.47800
C          9.83900        1.61800       16.58900
H          9.87600        1.70200       17.51500
C          8.77000        2.21800       15.91700
H          8.11300        2.68800       16.37500
C          6.33200        3.43600       20.97200
H          6.48000        3.86900       20.12700
H          7.17200        3.14700       21.33400
H          5.91600        4.05300       21.57800
C          5.35900        2.14600       20.75900
H          4.52100        2.44500       20.37200
H          5.77500        1.53900       20.12800
C          5.11200        1.51200       21.84700
H          4.97700        2.17500       22.54300
H          5.91300        1.01600       22.08100
C          4.05000        0.62900       21.91000
H          3.26600        1.20000       21.93700
H          4.03700        0.20900       21.03600
C          3.76400       -0.37000       22.76500
H          4.58300       -0.88700       22.82100
H          3.66800        0.06300       23.62700
C          2.87100       -1.20800       22.73800
H          2.94700       -1.78400       23.50300
H          2.94700       -1.73000       21.93600
H          2.01900       -0.76700       22.75300
