90
C:\Users\Javier\OneDrive - Universitat de Barcelona\Tesi\4 - Contribucions\Treballs\3-PhD\chapter_1\cif\pc3p\GEWYEO.pc3p.pdb
Pd        11.30400        9.72800       12.01800
S         11.54800       11.71900       10.76100
S         12.93500       10.57700       13.52000
S         13.97000        9.71900        8.11300
S         10.49200       13.66700       14.63400
P         11.11000        7.81800       13.25200
P          9.60600        9.05200       10.64700
N         13.06700        9.92700        9.49400
N         10.89900       12.27000       13.87200
O         15.35600        9.55800        8.45300
O         13.39000        8.70200        7.27400
O          9.52900       13.37700       15.66800
O         10.11800       14.68600       13.68300
C         12.55300       11.13200        9.51700
C         12.16900       11.98300       14.08500
C         12.87200       12.01100        8.35200
C         13.67200       11.32600        7.43900
C         14.09500       11.89900        6.26100
H         14.64200       11.42100        5.64900
C         13.68900       13.20800        6.00000
H         13.95000       13.62700        5.18800
C         12.91200       13.90400        6.90400
H         12.66100       14.79900        6.71300
C         12.48900       13.31000        8.09800
H         11.95100       13.78800        8.71700
C         12.92100       12.97200       14.91500
C         12.08300       14.00500       15.32300
C         12.51100       15.05400       16.11100
H         11.92100       15.75000       16.37700
C         13.85300       15.04800       16.49900
H         14.18400       15.74600       17.05200
C         14.71100       14.03500       16.08900
H         15.62200       14.06100       16.35300
C         14.25400       12.98000       15.29300
H         14.84200       12.28600       15.01800
C         10.77500        6.29700       12.30800
H         11.54900        6.12000       11.71700
H         10.70600        5.54200       12.94400
C          9.50100        6.32600       11.44600
H          9.31700        5.40900       11.12000
H          8.73800        6.59900       12.01500
C          9.58300        7.27100       10.24100
H          8.80800        7.09500        9.65100
H         10.40200        7.05600        9.72800
C          9.82900        7.95800       14.52400
C          8.99200        6.89100       14.87900
H          9.08400        6.04700       14.45200
C          8.02600        7.07600       15.86300
H          7.45300        6.35600       16.09900
C          7.88700        8.29100       16.49800
H          7.22700        8.40100       17.17200
C          8.70900        9.35400       16.15500
H          8.61000       10.19400       16.58900
C          9.68200        9.18700       15.17400
H         10.25100        9.91200       14.94400
C         12.65600        7.41900       14.12700
C         12.73600        7.43800       15.51100
H         11.95800        7.60300       16.03000
C         13.95800        7.21700       16.13600
H         14.01600        7.23600       17.08400
C         15.08800        6.97000       15.38300
H         15.92400        6.82500       15.81300
C         15.00500        6.93100       14.00000
H         15.78000        6.74600       13.48400
C         13.80000        7.16100       13.37300
H         13.74700        7.14400       12.42400
C          8.01600        9.38900       11.45800
C          7.95100       10.21800       12.56600
H          8.73600       10.64700       12.88300
C          6.73600       10.42100       13.21500
H          6.69400       10.98200       13.98100
C          5.59000        9.80500       12.74600
H          4.76500        9.93300       13.20000
C          5.63400        9.00600       11.62000
H          4.84100        8.59800       11.29200
C          6.83600        8.80200       10.97400
H          6.86500        8.26000       10.19500
C          9.49000        9.85100        9.01800
C          8.66100       10.96000        8.82900
H          8.11900       11.27900        9.54300
C          8.63300       11.59900        7.58900
H          8.05800       12.34300        7.45400
C          9.43900       11.15700        6.55700
H          9.42000       11.60000        5.71700
C         10.27000       10.07500        6.74800
H         10.82100        9.77400        6.03500
C         10.30800        9.41500        7.97400
H         10.88900        8.67300        8.09900
O         17.73300       13.32400       15.12500
C         17.53500       14.19100       13.92900
