75
C:\Users\Javier\OneDrive - Universitat de Barcelona\Tesi\4 - Contribucions\Treballs\3-PhD\chapter_1\cif\pc3p\GOSTIT.pc3p.pdb
I          3.25300        6.58200        5.12700
I          0.87800        3.67000        4.67600
Rh         2.30800        5.24400        3.00100
P          3.95600        6.19500        1.74200
P          1.81400        3.83500        1.26200
O          0.88000        7.03900        1.35500
C          0.96700        6.59100        2.43900
C          0.04500        7.03500        3.56300
H         -0.86500        6.77000        3.36000
H          0.31000        6.59900        4.38800
C          0.10500        8.52000        3.74200
H          0.93300        8.75900        4.16500
H         -0.62800        8.80700        4.29200
H          0.04800        8.94900        2.88500
C          3.61200        6.44300       -0.02300
H          2.89200        7.08800       -0.10700
H          4.39900        6.83200       -0.43700
C          3.22700        5.18800       -0.80300
H          3.18800        5.40800       -1.74800
H          3.92400        4.52400       -0.68600
C          1.90200        4.57600       -0.39500
H          1.67400        3.89000       -1.04300
H          1.22200        5.26400       -0.45300
C          4.57000        7.85600        2.16400
C          5.87200        8.06300        2.58100
H          6.43600        7.33700        2.72600
C          6.34000        9.36300        2.78300
H          7.21600        9.50700        3.06000
C          5.50700       10.42200        2.57300
H          5.82400       11.28700        2.69200
C          4.21900       10.22800        2.19400
H          3.65700       10.95800        2.07100
C          3.74400        8.95300        1.98700
H          2.85900        8.82800        1.72800
C          5.40500        5.10900        1.80300
C          6.32500        5.03500        0.78200
H          6.21900        5.56800        0.02700
C          7.40300        4.17400        0.86400
H          8.02700        4.14500        0.17700
C          7.55100        3.37100        1.95000
H          8.26000        2.77100        1.99100
C          6.65700        3.44300        2.98300
H          6.76700        2.90600        3.73500
C          5.60100        4.30900        2.90800
H          5.00200        4.36000        3.61700
C          2.96900        2.43300        1.20500
C          3.38900        1.83100        2.37800
H          3.05800        2.13400        3.19200
C          4.28500        0.79400        2.36000
H          4.53700        0.38400        3.15600
C          4.80800        0.36100        1.16800
H          5.44800       -0.31400        1.15900
C          4.39400        0.91300        0.00900
H          4.73400        0.59800       -0.79800
C          3.47300        1.93700        0.01100
H          3.18600        2.30100       -0.79600
C          0.15100        3.10200        1.23400
C         -0.95200        3.92800        1.15000
H         -0.83600        4.84900        1.10200
C         -2.22600        3.39700        1.14100
H         -2.96400        3.96000        1.09800
C         -2.40200        2.05800        1.19100
H         -3.26100        1.70200        1.17800
C         -1.33100        1.23000        1.25900
H         -1.45400        0.30900        1.28500
C         -0.05100        1.76000        1.28700
H          0.68100        1.18700        1.34400
Cl        -0.80600        1.72400       -2.43000
Cl        -1.54300        0.73900       -5.03300
C         -1.17300        1.89500       -4.39700
H         -1.87100        2.55400       -4.52400
H         -0.37000        2.23500       -4.82900
C         -0.52000        0.97000       -3.69500
H         -0.27400        0.07100       -3.40600
H          0.28900        1.35900       -4.05400
