98
C:\Users\Javier\OneDrive - Universitat de Barcelona\Tesi\4 - Contribucions\Treballs\3-PhD\chapter_1\cif\pc3p\GUDCAJ.pc3p.pdb
Ru        10.43300        4.54300        4.19400
P          8.82700        6.08000        3.67800
P          9.70300        4.34900        6.41100
C          7.36600        6.46300        4.73200
H          7.11600        7.39200        4.62600
H          6.59700        5.93800        4.40000
C          7.52300        6.21000        6.23200
H          6.68000        6.36100        6.62100
H          8.14500        6.87400        6.54200
C          7.91200        4.77600        6.59800
H          7.57800        4.49200        7.53400
H          7.46900        4.15700        6.01700
C         12.20800        5.95800        4.15700
H         12.13200        6.77600        4.75500
C         12.42100        4.82900        4.96300
H         12.43300        4.96500        5.86700
C         12.49000        3.51600        4.43800
H         12.45600        2.78900        5.18700
C         13.25800        3.17400        3.17800
H         12.79300        3.51600        2.39600
H         13.22900        2.29500        3.12100
C         14.73600        3.59000        3.19200
H         15.05100        3.46700        2.38200
H         15.21200        2.99000        3.67100
C         15.05700        5.00000        3.66400
H         14.82000        5.08200        4.59900
H         15.94100        5.13100        3.53600
C         14.43500        6.17000        2.91600
H         14.82400        6.17500        1.99100
H         14.66000        6.89600        3.38200
C         12.90100        6.18900        2.83400
H         12.64600        5.52000        2.21700
H         12.67200        7.00400        2.44500
C          8.06700        5.21600        2.24100
H          7.33600        5.73700        1.84100
C          9.22600        5.00400        1.26500
H          8.87800        4.49600        0.42100
H          9.55000        5.89100        0.98000
C         10.34600        4.24400        1.95600
H         11.09300        4.24100        1.52400
C         10.01400        3.08400        2.68500
H         10.59300        2.36200        2.78200
C          8.79800        3.12500        3.40200
H          8.61400        2.38000        3.93400
C          7.63000        3.85800        2.77800
H          6.95000        4.01700        3.41800
H          7.20300        3.28000        1.94100
C          9.34700        7.72800        3.01100
H         10.12300        7.55700        2.54000
C          9.70700        8.72100        4.10300
H          8.86600        8.90700        4.60300
H         10.25600        8.34600        4.71900
C         10.28900        9.99400        3.51900
H         10.48200       10.55000        4.18500
H         11.14100        9.68800        3.08100
C          9.33100       10.64200        2.53800
H          8.42600       10.89100        3.06000
H          9.73200       11.33700        2.17800
C          8.92600        9.66600        1.44300
H          8.29700        9.97100        0.94600
H          9.75300        9.38100        0.91400
C          8.36100        8.37400        2.03600
H          8.19300        7.73100        1.30100
H          7.52900        8.52100        2.49700
C          8.99400        1.58500        6.44000
H          8.08400        1.91800        6.24500
H          9.50000        1.41600        5.56400
C          8.92500        0.25200        7.20900
H          8.40100        0.33800        7.97800
H          8.51000       -0.41600        6.61400
C         10.31300       -0.22800        7.59800
H         10.25000       -0.95300        8.17500
H         10.78200       -0.43000        6.66200
C         11.06200        0.83700        8.34900
H         10.70100        0.93900        9.14000
H         11.95900        0.52700        8.48400
C         11.09400        2.17300        7.62700
H         11.55500        2.08100        6.93300
H         11.67500        2.83200        8.07100
C          9.71300        2.66600        7.24100
H          9.26200        2.80600        7.99200
C         10.49900        5.34600        7.79500
H         11.40200        4.85200        7.94400
C          9.77300        5.30200        9.16600
H          9.58700        4.41400        9.44300
H          9.00500        5.82000        9.05700
C         10.61900        5.93600       10.26200
H         11.34300        5.45800       10.41400
H         10.09000        5.93800       11.12600
C         11.03000        7.35800        9.91900
H         10.10300        7.85700        9.89200
H         11.57800        7.68700       10.53100
C         11.72000        7.42100        8.55700
H         12.52500        6.92900        8.61100
H         11.87300        8.32900        8.27400
C         10.85200        6.79200        7.46400
H         11.31600        6.85800        6.54400
H         10.12300        7.31000        7.43500
