88
C:\Users\Javier\OneDrive - Universitat de Barcelona\Tesi\4 - Contribucions\Treballs\3-PhD\chapter_1\cif\pc3p\HEGZEA01.pc3p.pdb
C          8.51000        4.62800       -0.63500
H          8.31100        5.14800        0.17100
Cl         9.43500        5.63800       -1.78300
Cl         6.99500        4.14400       -1.41700
Cl         9.42200        3.28200       -0.22200
Pd         5.32100        4.33200        4.06100
S          7.00800        5.62900        2.90200
C          8.46200        4.98500        3.41900
N          9.45600        4.60700        3.82200
P          4.95600        6.02400        5.65600
P          3.75600        2.94700        4.91200
C          3.35900        6.00800        6.57100
H          3.47800        6.51600        7.38900
H          2.70200        6.47600        6.03500
C          2.78800        4.66000        6.94000
H          2.01500        4.79400        7.51000
H          3.45000        4.17000        7.45200
C          2.36900        3.80800        5.73900
H          1.92600        4.37900        5.09200
H          1.72500        3.14700        6.03800
C          6.28300        5.92300        6.90200
C          6.05000        5.44700        8.20000
H          5.18100        5.24100        8.45800
C          7.09300        5.27100        9.11500
H          6.93200        4.95000        9.97400
C          8.41300        5.60400        8.68500
H          9.12700        5.48200        9.26900
C          8.65500        6.11900        7.38900
H          9.51200        6.35600        7.11600
C          7.55800        6.26200        6.53000
H          7.70000        6.59700        5.67300
C          4.96000        7.73900        5.10600
C          5.27900        8.80000        5.95100
H          5.57600        8.62400        6.81500
C          5.16100       10.13000        5.52100
H          5.36400       10.82900        6.10100
C          4.74500       10.38900        4.24700
H          4.68200       11.26500        3.94600
C          4.41800        9.34600        3.40500
H          4.11400        9.52700        2.54600
C          4.53700        8.04600        3.82700
H          4.32700        7.35600        3.23800
C          4.38300        1.83400        6.20900
C          5.64300        2.01900        6.75000
H          6.20000        2.68300        6.41400
C          6.08100        1.21000        7.79700
H          6.92000        1.35600        8.17100
C          5.29400        0.21600        8.27000
H          5.60300       -0.33400        8.95300
C          4.01000        0.01000        7.72900
H          3.47200       -0.67200        8.06000
C          3.54300        0.82300        6.70600
H          2.69000        0.70200        6.35600
C          2.88500        1.82100        3.76200
C          1.65800        2.19000        3.24300
H          1.28300        3.01300        3.45100
C          0.98800        1.28800        2.38700
H          0.16000        1.51900        2.03200
C          1.54300        0.09000        2.08000
H          1.08300       -0.50300        1.53000
C          2.77200       -0.25600        2.57500
H          3.15500       -1.06700        2.33100
C          3.44700        0.59400        3.42900
H          4.27200        0.34700        3.77900
N          4.02700        4.62700        1.68400
C          5.85500        2.76400        2.87900
C          6.76700        1.80300        3.31300
H          7.13200        1.87800        4.16500
C          7.14300        0.74700        2.51700
H          7.74800        0.12100        2.84300
C          6.63900        0.60300        1.25200
H          6.88800       -0.12000        0.72200
C          5.74800        1.55700        0.78200
H          5.41300        1.48600       -0.08200
C          5.35000        2.62300        1.58800
C          4.46600        3.61400        1.04500
H          4.19100        3.50900        0.16400
C          3.33600        5.67900        1.03300
C          3.94000        6.41300        0.07000
H          4.82000        6.24700       -0.17900
C          3.17900        7.45200       -0.55300
H          3.50600        7.82900       -1.33700
C          2.06800        7.89400       -0.08000
H          1.67000        8.66100       -0.42000
C          1.47600        7.16200        0.98200
H          0.66100        7.44700        1.32500
C          2.05800        6.06400        1.50600
H          1.62900        5.57000        2.16500
