88
C:\Users\Javier\OneDrive - Universitat de Barcelona\Tesi\4 - Contribucions\Treballs\3-PhD\chapter_1\cif\pc3p\HEGZEA.pc3p.pdb
Pd         5.32100        3.96800        4.06100
P          3.75700        5.35300        4.91200
P          4.95500        2.27800        5.66000
S          7.01000        2.66900        2.90600
N          9.43100        3.69500        3.79400
N          4.02000        3.67000        1.68200
C          8.43800        3.30500        3.42200
C          5.85100        5.53100        2.88400
C          6.78000        6.48900        3.31600
H          7.15700        6.40500        4.16000
C          7.14800        7.55500        2.51900
H          7.74300        8.19100        2.84500
C          5.74500        6.74500        0.78200
H          5.40200        6.82300       -0.08000
C          6.63900        7.68300        1.24300
H          6.89800        8.39300        0.70200
C          5.34700        5.67800        1.58800
C          3.32400        2.62100        1.02300
C          2.07200        2.22500        1.51800
H          1.66200        2.69900        2.20600
C          1.46800        1.13400        0.97500
H          0.64500        0.86200        1.31000
C          2.05500        0.39500       -0.09400
H          1.65600       -0.37200       -0.43700
C          3.18200        0.85500       -0.56200
H          3.52500        0.47300       -1.33700
C          3.91900        1.91400        0.04800
H          4.78800        2.10800       -0.22200
C          2.88600        6.48400        3.76500
C          1.66500        6.12900        3.24300
H          1.29100        5.30600        3.45300
C          0.98400        7.01600        2.38900
H          0.15400        6.78300        2.03900
C          1.55200        8.22900        2.07800
H          1.10700        8.82200        1.51800
C          2.76900        8.55900        2.59200
H          3.15000        9.38000        2.37200
C          3.44500        7.70600        3.42900
H          4.27600        7.94700        3.77200
C          4.38700        6.45600        6.20700
C          3.55300        7.47500        6.70900
H          2.69700        7.59700        6.36400
C          4.02000        8.29200        7.72200
H          3.48500        8.98100        8.04600
C          5.28100        8.09100        8.26300
H          5.58500        8.64200        8.94600
C          6.08200        7.08400        7.79500
H          6.92100        6.94100        8.17100
C          5.63600        6.27500        6.75400
H          6.18800        5.60400        6.42400
C          2.38000        4.49400        5.74800
H          1.73800        5.15600        6.04700
H          1.93500        3.92100        5.10400
C          2.79700        3.65400        6.93500
H          2.02400        3.52400        7.50700
H          3.45800        4.14700        7.44700
C          3.37100        2.29400        6.59000
H          2.70900        1.81100        6.07200
H          3.50100        1.80300        7.41800
C          6.27500        2.37400        6.90700
C          6.05200        2.85200        8.20000
H          5.19300        3.06000        8.48700
C          4.44600        4.68800        1.04000
H          4.15900        4.79900        0.16200
C          7.16300        3.01500        9.06400
H          7.03000        3.36500        9.91300
C          8.41500        2.67400        8.67800
H          9.13000        2.77200        9.26400
C          8.61500        2.18800        7.42300
H          9.47300        1.94900        7.15700
C          7.56300        2.04200        6.53700
H          7.72600        1.71700        5.68100
C          4.95500        0.55100        5.09700
C          5.26300       -0.50500        5.95300
H          5.54000       -0.32700        6.82200
C          5.15900       -1.82600        5.51700
H          5.37300       -2.52700        6.09100
C          4.74000       -2.08500        4.24500
H          4.67300       -2.96500        3.95000
C          4.41700       -1.04900        3.39800
H          4.12100       -1.23500        2.53600
C          4.52800        0.27600        3.81800
H          4.31500        0.96800        3.23600
C          3.14000        4.63300       11.48200
H          2.95400        5.14600       12.29500
Cl         1.60400        4.15200       10.67400
Cl         3.99300        5.63800       10.29500
Cl         3.99700        3.29000       11.83400
