95
C:\Users\Javier\OneDrive - Universitat de Barcelona\Tesi\4 - Contribucions\Treballs\3-PhD\chapter_1\cif\pc3p\HUHSIO.pc3p.pdb
C          2.25900        4.96600       19.94400
H          1.52900        4.29700       19.91900
H          2.23800        5.39600       20.83600
C          1.98300        6.02600       18.88800
H          1.30900        6.65700       19.24400
H          2.81600        6.53700       18.72800
C          1.48700        5.48600       17.56000
H          1.20300        6.25200       16.99900
H          0.68400        4.93300       17.72900
C          3.84600        2.95600       21.19700
C          2.66400        2.34900       21.59300
H          1.85300        2.57800       21.15500
C          2.64300        1.41500       22.61400
H          1.82400        1.01100       22.87700
C          3.82000        1.07800       23.24800
H          3.81500        0.44200       23.95200
C          4.98900        1.65800       22.86400
H          5.79500        1.41700       23.30400
C          5.02400        2.60000       21.84000
H          5.85000        2.99500       21.58200
C          5.03100        5.41900       20.17300
C          5.15400        5.93600       21.44900
H          4.69500        5.52300       22.16900
C          5.94300        7.05200       21.68900
H          6.03100        7.38400       22.57300
C          6.59500        7.67900       20.66200
H          7.11500        8.45600       20.82800
C          6.49400        7.17600       19.39200
H          6.95300        7.59800       18.67700
C          5.71800        6.04800       19.15000
H          5.65900        5.70400       18.26600
C          1.61900        3.56200       15.44600
C          0.67400        4.21900       14.67900
H          0.55200        5.15500       14.77900
C         -0.09000        3.52100       13.77200
H         -0.73700        3.97800       13.24800
C          0.07500        2.17500       13.62100
H         -0.44300        1.70300       12.98300
C          0.99100        1.50000       14.39300
H          1.09400        0.56100       14.30100
C          1.76800        2.20600       15.31300
H          2.40200        1.74300       15.84900
C          3.50500        5.70600       15.50800
C          3.91200        5.33800       14.25100
H          3.76500        4.44700       13.95400
C          4.53100        6.24800       13.41200
H          4.79000        5.98600       12.53600
C          4.77400        7.53600       13.84600
H          5.19900        8.16100       13.27100
C          4.40100        7.91100       15.10300
H          4.57800        8.79200       15.41000
C          3.76500        7.00000       15.93100
H          3.50200        7.26800       16.80500
C          7.34000        3.11600       14.88900
H          8.10400        2.85800       14.38800
C          7.31600        4.34300       15.36900
H          6.54800        4.57800       15.87500
C          8.34500        5.40200       15.21400
C          9.57200        5.17800       14.60200
H          9.77700        4.31400       14.26800
C         10.49400        6.18800       14.47200
H         11.32700        6.01300       14.05100
C         10.22100        7.45000       14.94000
H         10.86300        8.14600       14.85500
C          9.00500        7.69300       15.53500
H          8.80400        8.56200       15.85700
C          8.06700        6.67400       15.67000
H          7.22900        6.85800       16.07900
C          5.40800        1.40400       13.39300
H          4.64200        0.79600       13.44800
H          6.13900        0.96600       12.90600
H          5.14500        2.22000       12.92100
C          6.84500        0.33200       15.80600
H          7.30000        0.56900       16.64100
H          7.50200        0.00600       15.15700
H          6.18400       -0.37000       15.98200
C          5.75700        2.15600       18.70200
C          7.01900        2.69600       18.92100
H          7.19500        3.58500       18.63400
C          8.03700        1.97500       19.55400
H          8.89400        2.36200       19.68600
C          7.77500        0.69400       19.97900
H          8.44900        0.19300       20.42200
C          6.53200        0.14100       19.76100
H          6.36800       -0.74800       20.05200
C          5.51600        0.83900       19.13300
C          4.17200        0.20100       18.90800
H          4.16500       -0.69600       19.30000
H          3.99700        0.13700       17.94600
H          3.47600        0.74800       19.33100
O          4.75900        2.35500       15.96600
P          3.85800        4.08800       19.75900
P          2.68700        4.48500       16.60200
Pd         4.28600        3.21800       17.76400
Si         5.98300        1.83900       15.11700
