132
C:\Users\Javier\OneDrive - Universitat de Barcelona\Tesi\4 - Contribucions\Treballs\3-PhD\chapter_1\cif\pc3p\HUHZUF.pc3p.pdb
Pd         0.15100        2.36900        5.74700
Cl         1.30600        3.36400        7.57300
P         -1.57400        3.98200        6.05400
P         -1.04800        1.45700        4.08000
C          1.74800        1.07700        5.63200
N          2.73100        0.98200        4.83300
C          1.86500        0.25000        6.88400
N          0.87300       -0.49200        7.21800
C          2.89000        1.63700        3.59300
C          3.20500        2.99700        3.51400
C          3.40100        3.54200        2.22500
H          3.60500        4.44600        2.13900
C          3.29200        2.76700        1.09700
H          3.36700        3.15800        0.25700
C          3.07500        1.41700        1.20700
H          3.04000        0.89300        0.44000
C          2.90700        0.83100        2.43900
C          3.37700        3.87800        4.72000
H          2.51500        4.14900        5.04300
H          3.88700        4.65500        4.47800
H          3.83900        3.39200        5.40700
C          2.82700       -0.67200        2.54000
H          3.68700       -1.02200        2.79000
H          2.56900       -1.03700        1.69100
H          2.17800       -0.91400        3.20500
C          1.00800       -1.28500        8.39700
C          1.73200       -2.47000        8.42700
C          1.86000       -3.15400        9.63200
H          2.37400       -3.92900        9.66700
C          1.23500       -2.69800       10.77300
H          1.33900       -3.15700       11.57500
C          0.45900       -1.56400       10.72600
H          0.02900       -1.27400       11.49800
C          0.30400       -0.84200        9.54600
C          2.38700       -3.01100        7.17100
H          2.25600       -3.96100        7.12600
H          3.32700       -2.81900        7.19300
H          1.99300       -2.59600        6.40000
C         -0.57100        0.38300        9.47000
H         -1.19600        0.28600        8.74700
H         -0.02500        1.15700        9.31900
H         -1.05100        0.48500       10.29500
C          3.14800        0.37400        7.65300
H          3.54600        1.23000        7.47600
H          3.75200       -0.32200        7.38100
H          2.96700        0.29300        8.59200
C         -3.24500        3.39400        5.60400
H         -3.90400        3.84300        6.15700
H         -3.42700        3.61700        4.67800
C         -3.36200        1.88700        5.79600
H         -2.92500        1.64400        6.62800
H         -4.30000        1.65500        5.87900
C         -2.75700        1.07100        4.67300
H         -3.35200        1.14100        3.91000
H         -2.76500        0.14200        4.95200
C         -2.07600        3.60000        8.75200
H         -2.02000        2.69700        8.53700
C         -2.38900        3.98600       10.05000
H         -2.54300        3.34200       10.70300
C         -2.47400        5.33700       10.37200
H         -2.68400        5.59500       11.24000
C         -2.24500        6.30000        9.39500
H         -2.30100        7.20200        9.61100
C         -1.93100        5.91300        8.09800
H         -1.77900        6.55600        7.44500
C         -1.84700        4.56300        7.77700
C         -2.26600        6.11600        4.31800
H         -3.11600        5.74600        4.26500
C         -1.96800        7.27600        3.61000
H         -2.62000        7.68100        3.08600
C         -0.69600        7.83100        3.68900
H         -0.49700        8.60600        3.21600
C          0.27900        7.22600        4.47500
H          1.12900        7.59800        4.52600
C         -0.01800        6.06600        5.18100
H          0.63300        5.66200        5.70700
C         -1.29100        5.51200        5.10300
C         -2.41100        2.63700        1.91300
H         -3.09400        2.03000        2.08400
C         -2.53900        3.55500        0.87800
H         -3.30800        3.56400        0.35600
C         -1.51600        4.46200        0.62300
H         -1.60200        5.07700       -0.07000
C         -0.36600        4.45000        1.40300
H          0.31900        5.05600        1.23200
C         -0.23800        3.53000        2.43800
H          0.53200        3.52200        2.95900
C         -1.26000        2.62500        2.69300
C         -0.71100       -0.34500        1.92100
H         -0.88100        0.37500        1.35700
C         -0.51900       -1.61500        1.38900
H         -0.56100       -1.74400        0.46900
C         -0.26600       -2.69000        2.23200
H         -0.13700       -3.54000        1.87500
C         -0.20300       -2.49600        3.60600
H         -0.03300       -3.21700        4.17000
C         -0.39300       -1.22700        4.13800
H         -0.35200       -1.09800        5.05800
C         -0.64800       -0.15100        3.29600
O          3.56600        3.09900       11.50700
C          2.89200        2.05700       12.01100
H          3.11600        1.28500       11.46800
H          3.25100        1.88900       12.89600
C          1.61800        2.07800       12.12400
H          1.35200        2.14400       13.05500
H          1.22100        1.27900       11.74100
C          1.24000        3.19600       11.42600
H          0.59200        3.70800       11.93400
H          0.83900        2.94400       10.57900
C          2.66000        4.13300       11.15600
H          2.75300        4.41300       10.23200
H          2.72100        4.89900       11.74700
H         -3.63200        3.07900        6.43600
H         -3.74800        4.18800        5.36300
C         -3.59000        2.36700        4.59100
H         -3.47700        2.75200        3.70900
H         -4.52700        2.13700        4.69100
H         -3.17100        0.39200        4.11800
H         -2.71600        0.74000        5.58400
O          1.65100        4.15500       11.39700
C          3.05600        3.67500       10.94500
H          3.20000        4.00800       10.04500
H          3.70800        4.11100       11.51400
C          3.30800        2.51000       10.93800
H          3.58900        2.22500       10.05500
H          4.01500        2.30900       11.57100
C          2.37100        2.00600       11.23000
H          2.57800        1.29400       11.85700
H          1.97500        1.60000       10.44300
C          1.09300        3.18000       12.02900
H          0.17700        3.00900       11.75800
H          1.16600        3.24400       12.99400
