86
C:\Users\Javier\OneDrive - Universitat de Barcelona\Tesi\4 - Contribucions\Treballs\3-PhD\chapter_1\cif\pc3p\IHEKEM.pc3p.pdb
C          5.22300        1.66200       16.37000
C          4.11500        0.87500       16.63200
H          3.26900        1.26000       16.65200
C          4.25900       -0.48800       16.86100
H          3.50800       -1.01500       17.01200
C          5.50000       -1.05100       16.86600
H          5.59000       -1.96400       17.01900
C          6.60800       -0.29400       16.65200
H          7.45200       -0.68200       16.67900
C          6.47200        1.07100       16.38700
H          7.22900        1.58500       16.22100
C          5.33600        4.25600       17.61900
C          5.67500        3.54400       18.76400
H          5.81900        2.62700       18.71500
C          5.79800        4.20100       19.98300
H          6.03000        3.72200       20.74500
C          5.58100        5.55000       20.06500
H          5.64700        5.98100       20.88700
C          5.26600        6.26800       18.93500
H          5.12500        7.18500       18.99500
C          5.15800        5.64100       17.72000
H          4.96700        6.13900       16.96000
C          5.25900        1.26600       12.75600
C          6.45000        0.64200       13.01000
H          7.20400        1.15000       13.21100
C          6.54400       -0.75200       12.97100
H          7.36100       -1.17200       13.11500
C          5.42200       -1.49100       12.71700
H          5.47400       -2.41900       12.71500
C          4.23700       -0.89200       12.46800
H          3.48600       -1.40700       12.28400
C          4.13700        0.50300       12.48400
H          3.32200        0.91600       12.31300
C          5.44100        3.73100       11.16800
C          5.55600        5.10600       11.01100
H          5.52800        5.66200       11.75600
C          5.71400        5.64700        9.75500
H          5.80200        6.56700        9.65600
C          5.74100        4.83900        8.64800
H          5.85400        5.20400        7.79900
C          5.60100        3.47900        8.80900
H          5.60200        2.93000        8.05900
C          5.46100        2.91800       10.04900
H          5.38100        1.99500       10.13700
C          3.37400        3.81300       15.62400
H          2.83300        3.57200       16.39200
H          3.29600        4.77300       15.50700
C          2.78000        3.14000       14.40000
H          1.83500        3.35400       14.35200
H          2.86000        2.17900       14.50100
C          3.44800        3.55800       13.09000
H          3.38900        4.52300       13.01800
H          2.93300        3.18300       12.35800
C          9.27400        5.37400       14.91600
C          8.52800        3.80500       11.98700
H          7.83800        3.25600       11.68900
C          9.62700        3.93700       11.02800
C         10.68600        4.78300       11.10900
H         10.77400        5.34500       11.84400
C         11.63600        4.81600       10.10100
H         12.35200        5.40700       10.16400
C         11.53800        4.00600        9.03800
H         12.18000        4.04600        8.36500
C         10.48400        3.10900        8.93300
H         10.42500        2.52700        8.21000
C          9.53900        3.10000        9.91000
H          8.81500        2.52200        9.83400
C         13.06800        6.92700       14.04900
H         12.84900        5.98400       13.99100
H         12.55900        7.25000       14.80900
C         14.46600        6.87100       14.62900
H         14.45800        6.34900       15.43500
H         14.76600        7.76100       14.82900
H         15.06100        6.46700       13.99300
N          8.32600        4.30000       13.16400
N          9.36800        5.08400       13.64000
N         10.27900        6.09800       15.43500
H         10.93300        6.34400       14.93400
H         10.26700        6.31600       16.26600
S          8.00000        4.91000       15.99700
Cl        12.29300       10.02000       12.38100
O         12.32800        7.45000       12.97800
H         12.37600        8.26900       12.98500
P          5.11700        3.42800       16.01300
P          5.18600        3.08200       12.85200
Pd         6.64900        3.93500       14.42000
