75
C:\Users\Javier\OneDrive - Universitat de Barcelona\Tesi\4 - Contribucions\Treballs\3-PhD\chapter_1\cif\pc3p\IJITIG.pc3p.pdb
C          7.24600       19.43500       14.74200
C          7.46400       17.97900       14.39200
H          7.17000       17.82300       13.48300
H          8.41400       17.78200       14.43600
C          4.72000       15.98700       18.07500
C          5.92700       16.75700       18.64400
H          5.77900       16.90700       19.59000
H          6.71600       16.19800       18.55700
C          3.48300       19.40200       18.95600
C          2.96200       18.46600       19.83600
H          2.48100       17.73900       19.51200
C          3.15900       18.61400       21.20700
H          2.80100       17.97700       21.78200
C          3.83200       19.62000       21.71800
H          3.91500       19.71100       22.64000
C          4.40300       20.52600       20.87700
H          4.91900       21.21600       21.22600
C          4.22500       20.43500       19.50800
H          4.60700       21.07200       18.95200
C          2.91400       20.97800       16.67400
C          3.59200       21.61200       15.66800
H          4.31500       21.19100       15.26400
C          3.21600       22.87100       15.25000
H          3.68000       23.29800       14.56500
C          2.15700       23.48300       15.84800
H          1.88700       24.32300       15.55400
C          1.49900       22.88600       16.85800
H          0.79700       23.33100       17.27400
C          1.85500       21.61900       17.28700
H          1.38800       21.20800       17.97800
C          4.34400       16.48400       13.21700
C          4.40800       15.20000       13.76200
H          4.19800       15.07300       14.66000
C          4.77100       14.13800       13.00500
H          4.78100       13.28200       13.37100
C          5.13500       14.34000       11.64400
H          5.42200       13.62700       11.12200
C          5.06100       15.55800       11.12700
H          5.27000       15.68900       10.23100
C          4.68700       16.61900       11.89200
H          4.66000       17.46400       11.50500
C          4.48300       19.95900       12.66900
H          5.33800       19.81100       13.00100
C          4.26800       20.99200       11.74600
H          4.96400       21.54000       11.45600
C          2.95300       21.16900       11.27000
H          2.79100       21.83200       10.63800
C          1.85900       20.37600       11.71800
H          0.98800       20.52800       11.43100
C          2.15900       19.40400       12.57000
H          1.47500       18.83600       12.84700
C          3.45500       19.17700       13.08100
C          2.10300       17.23600       14.74900
H          1.62200       17.02000       13.93500
H          2.19600       16.42000       15.26400
C          1.27700       18.23400       15.55600
H          0.34900       17.95000       15.55800
H          1.31900       19.10300       15.12700
C          1.75800       18.36900       17.00200
H          1.85100       17.48400       17.38600
H          1.08800       18.84600       17.51300
N          6.74900       17.07700       15.28800
H          7.29900       16.79400       15.94300
H          6.45900       16.35700       14.83100
N          6.20300       18.05700       18.00300
H          7.08200       18.13500       17.82800
H          5.96200       18.72900       18.55100
O          6.23900       19.74200       15.45500
O          8.02600       20.29200       14.27300
O          4.22900       16.40600       16.98500
O          4.31900       15.03000       18.69600
P          3.34800       19.24600       17.14700
P          3.78700       17.85200       14.30000
Ru         5.05600       18.14400       16.15000
O          5.21700        1.74600        3.59100
