163
C:\Users\Javier\OneDrive - Universitat de Barcelona\Tesi\4 - Contribucions\Treballs\3-PhD\chapter_1\cif\pc3p\ISETUX.pc3p.pdb
O         10.02400       16.83000       13.95100
O         12.09700       16.72200       11.99300
C         12.97200       19.11500       16.93400
C         14.34300       19.54900       16.41500
C         14.93800       18.60400       15.37100
C          8.83100       17.31700       13.36100
C          7.82800       16.20100       13.46400
C          8.68700       14.97300       13.55100
C          9.85000       15.43600       14.34100
C         12.33600       15.34000       11.72700
C         12.42200       15.19500       10.29300
C         11.65500       16.34100        9.72400
C         11.85100       17.42100       10.75300
C         15.09300       17.65000       12.68900
C         15.40000       16.33400       13.02700
C         16.16600       15.55100       12.17300
C         16.62000       16.06500       10.97800
C         16.32200       17.36700       10.64600
C         15.56000       18.16200       11.48300
C         14.15200       20.31600       13.21000
C         15.26600       21.11200       13.48200
C         15.31500       22.41700       13.02900
C         14.27500       22.93700       12.30400
C         13.17600       22.16500       12.00700
C         13.11000       20.85400       12.46400
C         11.14800       20.68200       15.29400
C         11.68800       21.80700       15.91300
C         11.32000       23.08700       15.51300
C         10.40200       23.26000       14.50200
C          9.83700       22.16100       13.88400
C         10.21700       20.88500       14.26600
C         10.28900       18.30400       16.71200
C          9.09300       18.97900       16.93200
C          8.10500       18.40200       17.72800
C          8.30600       17.16500       18.30500
C          9.48700       16.48600       18.08600
C         10.46800       17.04800       17.28600
H         12.35000       20.28700       12.26400
P         11.64500       18.97000       15.67800
P         13.99900       18.60400       13.79800
Rh        11.98300       17.78600       13.88800
H         12.66500       19.73700       17.65200
H         13.07200       18.20700       17.29700
H         14.95500       19.60800       17.17100
H         14.26900       20.46700       16.03000
H         15.88500       18.82900       15.19500
H         14.88600       17.69900       15.73000
H          8.54000       18.13300       13.83000
H          9.00200       17.57300       12.40300
H          7.29800       16.30800       14.28300
H          7.21000       16.17300       12.70700
H          8.21500       14.22000       13.99600
H          8.97100       14.68300       12.65400
H          9.67400       15.36800       15.31200
H         10.67900       14.92100       14.13900
H         13.11700       15.03600       12.23700
H         11.55300       14.80500       12.04100
H         13.41600       15.27100       10.02900
H         12.11800       14.34900        9.97700
H         11.98600       16.61100        8.83200
H         10.70300       16.08900        9.65700
H         12.64800       17.98800       10.55200
H         11.06400       17.99900       10.86800
H         15.07300       15.96300       13.85100
H         16.38900       14.65600       12.41800
H         17.13800       15.52300       10.37800
H         16.64800       17.73000        9.82500
H         15.36600       19.06800       11.23900
H         16.00300       20.75100       13.97800
H         16.08400       22.94800       13.23300
H         14.30700       23.83500       12.00200
H         12.46400       22.52700       11.49000
H         12.31700       21.69700       16.62800
H         11.71600       23.85700       15.93100
H         10.15500       24.13600       14.21800
H          9.18500       22.27600       13.18800
H          9.84900       20.12100       13.81300
H          8.94500       19.84200       16.53400
H          7.28200       18.88200       17.87600
H          7.62900       16.77400       18.86700
H          9.62600       15.62400       18.48500
H         11.27400       16.55100       17.10400
F          6.22900       14.63700        8.88400
F         -0.41600       12.22400       13.76500
F          0.92500       11.50100       15.21500
F          3.04500       11.57500        8.67400
F          0.99100       11.97800        9.14500
F          0.82600       13.53900       14.74800
B          5.76000       11.50300       13.16900
F          9.96200        9.40900       10.74500
F         11.13100       10.91100       11.63900
F         10.82300       10.89800        9.52400
C          2.24600       12.30600        9.45800
F          3.70900       15.12600       16.44800
F          5.14500       15.53400       17.95000
F          5.34500       16.41600       16.03500
F          2.41700       13.57500        9.07000
F          8.73200       10.87200       17.56300
F          9.91700       12.10800       16.48600
F          9.09300       12.79600       18.29100
C          6.14700       12.33500       14.53800
C          5.46200       13.46200       15.01000
C          5.82600       14.11900       16.18200
C          6.92300       13.71000       16.92400
C          7.64400       12.61300       16.45900
C          7.25700       11.94700       15.30000
C          8.83500       12.13300       17.21200
C          5.01900       15.29400       16.64300
C          6.88400       11.93100       12.03900
C          6.74900       13.08300       11.25300
C          7.68600       13.44400       10.28900
C          8.83000       12.68900       10.09700
C          9.01000       11.56400       10.87600
C          8.05600       11.19800       11.82600
C         10.22600       10.72300       10.69600
C          7.42500       14.64700        9.43200
C          5.78600        9.88100       13.45900
C          5.56100        9.34500       14.73400
C          5.51400        7.98100       14.96700
C          5.70100        7.07500       13.92700
C          5.90300        7.58200       12.64800
C          5.92900        8.94600       12.42000
C          6.08300        6.61400       11.52500
C          5.28300        7.43900       16.33900
C          4.22900       11.80200       12.66800
C          3.86100       11.89900       11.31600
C          2.54700       12.12800       10.91800
C          1.53200       12.26000       11.85300
C          1.85900       12.12800       13.19500
C          3.17100       11.89300       13.58800
C          0.80300       12.25500       14.23900
H          6.04700        9.25000       11.52100
H          4.72500       13.80600       14.51800
H          7.17600       14.15800       17.73000
H          7.77900       11.19100       15.01600
H          5.97900       13.65100       11.39800
H          9.48000       12.92900        9.43600
H          8.22700       10.40100       12.34000
H          5.42200        9.93900       15.47300
H          5.69900        6.13800       14.09400
H          4.52700       11.81900       10.64900
H          0.63500       12.43000       11.58900
H          3.33100       11.78700       14.51800
F          5.11400        8.37500       17.25700
F          4.21000        6.67300       16.42800
F          6.26300        6.70400       16.77900
F          7.00800        5.70300       11.77100
F          6.45300        7.20000       10.38200
F          4.99300        5.94600       11.24200
F          8.27700       14.76100        8.43200
F          7.50000       15.77900       10.10000
F         -0.23600       12.87800       13.90000
F          1.21800       12.60500       15.41900
F          0.26000       10.99500       14.51800
F          4.27800        7.95800       16.92700
F          5.06800        6.17200       16.36000
F          6.26500        7.62400       17.13100
F          6.47700        5.42400       11.92900
F          6.97100        7.00100       10.65100
F          4.97100        6.40600       10.83700
F          7.19500       14.34100        8.18000
F          6.39500       15.33400        9.82300
F          8.42700       15.48700        9.41400
