113
C:\Users\Javier\OneDrive - Universitat de Barcelona\Tesi\4 - Contribucions\Treballs\3-PhD\chapter_1\cif\pc3p\ISUHOU.pc3p.pdb
C          0.58100        6.43500        5.43700
C          1.79400        5.95200        5.91300
H          1.81000        5.19700        6.49100
C          2.98200        6.57300        5.54700
H          3.81100        6.24200        5.87200
C          2.95800        7.67600        4.70400
H          3.77100        8.10100        4.45200
C          1.74500        8.16000        4.22600
H          1.72900        8.91500        3.64900
C          0.55700        7.54000        4.59300
H         -0.27200        7.86900        4.26700
C         -2.10300        7.10500        5.54500
C         -1.87700        8.17700        4.67000
H         -1.11000        8.12800        4.11100
C         -2.65700        9.27900        4.55100
H         -2.44300        9.97600        3.94300
C         -3.81700        9.34300        5.38300
H         -4.37300       10.11400        5.37200
C         -4.11600        8.29800        6.18600
H         -4.92400        8.30800        6.68500
C         -3.24800        7.18900        6.29700
H         -3.46200        6.48800        6.90300
Ru        -1.51600        4.17500        3.76800
Br        -3.80900        3.88700        4.83100
P         -1.03600        5.60100        5.58900
P         -0.86200        2.35700        4.89400
S         -3.79700        2.83300        1.81300
O          0.14500        4.89600        2.65300
O         -1.74000        5.97900        2.45600
N         -1.39900        2.53000        1.11000
C         -2.09800        3.08800        2.14900
C         -3.48700        1.96500        0.32400
C         -4.41300        1.39600       -0.56100
H         -5.34800        1.46600       -0.40800
C         -3.91500        0.72900       -1.67400
H         -4.50800        0.33400       -2.30100
C         -2.51100        0.63900       -1.86100
H         -2.17500        0.16800       -2.61600
C         -1.63800        1.20500       -1.00000
H         -0.70100        1.13400       -1.14900
C         -2.12900        1.89500        0.11100
C          0.08000        2.40900        1.14000
H          0.31300        1.46100        0.97500
H          0.38700        2.63100        2.05400
C          0.86000        3.26300        0.15900
C          2.23900        3.26500        0.34100
H          2.63100        2.73000        1.02200
C          3.03500        4.04600       -0.47100
H          3.97800        4.04500       -0.35000
C          2.46600        4.83700       -1.47200
H          3.01300        5.39100       -2.01600
C          1.12300        4.80500       -1.65700
H          0.74300        5.31300       -2.36500
C          0.28100        4.04200       -0.83100
H         -0.66200        4.05900       -0.94700
C         -0.52400        5.84400        2.12800
C          0.12800        6.81600        1.20100
H         -0.54100        7.18000        0.58400
H          0.82900        6.35900        0.68800
H          0.52600        7.54600        1.71900
C         -1.15300        4.85000        7.23800
H         -0.80100        5.49600        7.90100
H         -2.10900        4.70200        7.44600
C         -0.41300        3.52500        7.42300
H         -0.34100        3.32600        8.39000
H          0.50600        3.61300        7.06400
C         -1.11400        2.35500        6.72000
H         -2.08400        2.39800        6.91200
H         -0.77100        1.50300        7.09100
C          0.90200        1.88300        4.79000
C          1.37500        0.69300        5.34200
H          0.77000        0.09000        5.76000
C          2.75500        0.38000        5.28100
H          3.07600       -0.43700        5.64500
C          3.62300        1.25600        4.69800
H          4.54800        1.04200        4.66700
C          3.19200        2.42900        4.15800
H          3.81100        3.01900        3.74400
C          1.84300        2.75700        4.21600
H          1.54900        3.58900        3.86100
C         -1.71300        0.79600        4.37500
C         -1.22300        0.09600        3.28500
H         -0.41300        0.37100        2.87400
C         -1.90600       -1.00400        2.78900
H         -1.55600       -1.47500        2.04300
C         -3.09700       -1.42500        3.36800
H         -3.57900       -2.16300        3.01400
C         -3.56100       -0.74000        4.47500
H         -4.36100       -1.02700        4.89900
C         -2.86500        0.38300        4.98700
H         -3.19600        0.84600        5.75000
C          0.56600        6.50700        5.82500
C         -2.21100        6.98900        5.90600
C          1.73300        6.01000        5.25900
C         -3.21300        7.25100        4.99900
C          2.95400        6.61000        5.54000
C         -3.96900        8.42800        5.13300
C          3.00800        7.71000        6.38900
C         -3.72200        9.25100        6.21200
C          1.84100        8.20800        6.95600
C         -2.74000        8.99400        7.10300
C          0.62100        7.60700        6.67400
C         -1.94800        7.86000        6.96800
H          1.69600        5.25700        4.67900
H         -3.39300        6.64200        4.29300
H          3.75200        6.27000        5.15200
H         -4.63600        8.65300        4.49500
H          3.84300        8.12100        6.58000
H         -4.25900       10.02500        6.33200
H          1.87900        8.96000        7.53500
H         -2.58800        9.59200        7.82500
H         -0.17800        7.94800        7.06200
H         -1.24900        7.67900        7.58500
