79
C:\Users\Javier\OneDrive - Universitat de Barcelona\Tesi\4 - Contribucions\Treballs\3-PhD\chapter_1\cif\pc3p\JERDEQ.pc3p.pdb
Pd         6.04900        4.42300        5.95900
P          7.52700        5.66300        4.73500
P          7.68500        2.95000        6.62100
C          4.28800        5.66600        5.62500
H          4.42900        6.64500        5.64900
H          3.67200        5.37400        4.90700
C          4.15400        5.04900        6.82100
H          3.97500        5.56800        7.59600
C          4.27500        3.64700        6.94100
H          3.66400        3.10100        6.38300
H          4.39600        3.29100        7.85600
C          8.79800        4.67200        3.86700
H          8.34300        4.05400        3.24100
H          9.36100        5.28200        3.32900
C          9.71000        3.85000        4.79100
H         10.49700        3.54300        4.27400
H         10.03700        4.43300        5.52100
C          9.01500        2.63500        5.40100
H          9.70500        2.07700        5.83800
H          8.63000        2.10000        4.66200
C          8.44900        6.80300        5.79500
C          7.90000        7.20500        7.00000
H          7.04000        6.89100        7.25400
C          8.59600        8.06800        7.84500
H          8.20300        8.35500        8.66200
C          9.85300        8.50400        7.49400
H         10.33800        9.07500        8.07800
C         10.41200        8.11200        6.29000
H         11.27600        8.42300        6.04500
C          9.72000        7.27200        5.44500
H         10.10900        7.00800        4.62000
C          6.88400        6.70000        3.38300
C          6.74300        8.06800        3.54200
H          6.93700        8.47000        4.38000
C          6.32100        8.84900        2.48100
H          6.21600        9.78500        2.59900
C          6.05300        8.28800        1.26000
H          5.79600        8.83700        0.52900
C          6.15800        6.90800        1.09300
H          5.94800        6.50200        0.25900
C          6.57400        6.13500        2.16600
H          6.64800        5.19500        2.05900
C          7.25600        1.23500        7.08100
C          6.09900        0.65500        6.58400
H          5.49800        1.17100        6.06000
C          5.81700       -0.68900        6.85600
H          5.02300       -1.08300        6.51800
C          6.69300       -1.44100        7.61500
H          6.49500       -2.35100        7.80000
C          7.85900       -0.87400        8.10700
H          8.46400       -1.39800        8.61900
C          8.14000        0.47000        7.84900
H          8.93300        0.86400        8.19600
C          8.49800        3.67000        8.07900
C          9.87900        3.68400        8.26500
H         10.44600        3.26900        7.62600
C         10.43600        4.30500        9.38600
H         11.37900        4.31900        9.50200
C          9.62000        4.89800       10.32500
H          9.99900        5.31400       11.09100
C          8.24800        4.88700       10.15100
H          7.68900        5.29800       10.79900
C          7.67600        4.28000        9.03800
H          6.73200        4.27900        8.92800
S          4.42900       10.96800        6.71400
O          5.10500       10.19700        5.71000
O          5.18500       12.18400        7.08400
O          2.98900       11.08800        6.55500
C          4.53500        9.86000        8.17000
F          3.82300       10.34200        9.17800
F          4.05400        8.70200        7.87800
F          5.77800        9.69100        8.56200
S          4.22800       11.43700        7.44800
O          4.03200       11.91300        8.76400
O          5.22500       11.80900        6.75400
O          3.09400       11.40700        6.56200
C          4.74600        9.81800        7.66500
F          3.71300        9.11100        8.44500
F          4.95400        9.07500        6.52600
