130
C:\Users\Javier\OneDrive - Universitat de Barcelona\Tesi\4 - Contribucions\Treballs\3-PhD\chapter_1\cif\pc3p\JUBCOA.pc3p.pdb
F          6.07300       -1.00900        4.30500
F          5.72000       -1.97900        2.43500
F          4.78200       -2.71600        4.21800
F         -0.59600       -0.22100        1.94200
F          0.00600       -2.09600        2.79700
F          0.56100       -1.59100        0.79200
F          6.61100        4.80300        5.58000
F          7.68500        2.98500        5.27900
F          8.59800        4.84900        4.85500
F          1.68900        4.62900       -3.02200
F          3.71900        4.75100       -3.68500
F          2.39400        3.31800       -4.53200
F          5.68300       -0.86600       -1.41900
F          4.79600       -0.74000       -3.34600
F          3.66600       -1.51400       -1.73000
C          0.37500        1.74400        7.23700
C          0.38200        0.34700        7.85000
C          1.80000       -0.13800        8.05000
C         -0.68300        1.84500        4.53600
C         -1.59600        3.07200        4.67200
C         -1.46200        0.57700        4.87200
C          1.54300        3.61000        5.43500
C          0.78000        4.63100        6.29700
C          3.01200        3.65100        5.82400
C          4.49400       -0.59000        7.13100
C          5.16800        0.73500        6.75800
C          4.70100       -0.84300        8.63300
C          2.31200       -2.46800        6.39200
C          0.81700       -2.69000        6.19500
C          2.81800       -3.37700        7.51600
C          3.23500        1.49000        2.44200
C          1.94000        0.90900        2.32500
C          1.68900       -0.47100        2.50800
C          2.71500       -1.29700        2.99400
C          3.96100       -0.70400        3.26900
C          4.23100        0.65200        2.95600
C          0.40600       -1.09400        2.02200
C          5.13600       -1.60200        3.56900
C          3.49500        2.41400        0.03500
C          3.08500        3.27900       -0.99500
C          3.16100        2.91200       -2.32900
C          3.64700        1.67300       -2.71200
C          4.04700        0.79900       -1.71600
C          3.97000        1.16200       -0.37300
C          4.54300       -0.57600       -2.05100
C          2.74500        3.89800       -3.38200
C          5.08700        3.44700        1.87600
C          5.66600        3.53000        3.14700
C          6.91700        4.11700        3.35800
C          7.64000        4.63900        2.31300
C          7.08800        4.57200        1.04000
C          5.85500        3.97600        0.83500
C          7.44500        4.18000        4.74900
C          7.86900        5.12000       -0.11400
C          2.48700        4.07700        1.90700
C          2.81700        5.23100        2.63100
C          1.88100        6.21800        2.90600
C          0.56600        6.10600        2.47200
C          0.22400        4.98500        1.73000
C          1.16600        4.00600        1.43600
C          2.29400        7.44200        3.67100
C         -1.16200        4.83300        1.16600
B          3.57300        2.88600        1.61100
P          0.91500        1.86800        5.49000
P          2.71600       -0.65000        6.54600
Rh         2.35100        0.36900        4.55800
H          1.00400        2.28800        7.76600
H         -0.51700        2.12900        7.30200
H         -0.08000        0.36500        8.73000
H         -0.13700       -0.27400        7.28400
H          1.82300       -0.87400        8.68700
H          2.31900        0.59500        8.46600
H         -0.44400        1.78300        3.58600
H         -1.10400        3.86500        4.40600
H         -1.87700        3.16300        5.58500
H         -2.36600        2.95200        4.09100
H         -0.91600       -0.20900        4.77100
H         -1.79200        0.59500        5.81300
H         -2.23000        0.50800        4.29900
H          1.50200        3.89400        4.51100
H         -0.18800        4.54100        6.16400
H          0.95600        4.51800        7.23000
H          1.03300        5.52500        6.05000
H          3.51900        3.05300        5.29200
H          3.10400        3.41800        6.74000
H          3.36700        4.54800        5.69900
H          4.95000       -1.29900        6.64100
H          5.11500        0.86800        5.79700
H          6.09100        0.73100        7.02900
H          4.71000        1.45900        7.21900
H          4.23000       -1.63200        8.89500
H          5.64900       -0.92800        8.81900
H          4.36400       -0.09600        9.13400
H          2.74200       -2.77200        5.57900
H          0.47400       -2.10500        5.54300
H          0.35900       -2.52200        7.04100
H          0.64500       -3.59000        5.94200
H          3.79300       -3.30600        7.59900
H          2.42400       -3.14700        8.35000
H          2.59700       -4.29800        7.32100
H          1.16100        1.47200        2.03700
H          2.54900       -2.25100        3.16000
H          5.13400        1.01400        3.15700
H          2.74900        4.12300       -0.76900
H          3.71900        1.43300       -3.61300
H          4.27100        0.52600        0.28900
H          5.20100        3.18000        3.90000
H          8.47800        5.04500        2.46600
H          5.52000        3.95000       -0.04200
H          3.70900        5.34600        2.94900
H         -0.08200        6.76400        2.69500
H          0.90000        3.27600        0.89300
F          1.96200        7.40500        4.92400
F          1.77500        8.53400        3.21400
F          3.61700        7.65200        3.66200
F         -1.19500        5.00700       -0.12400
F         -2.01400        5.70100        1.68300
F         -1.66800        3.63800        1.39000
F          8.39500        6.33400        0.16200
F          7.10700        5.26500       -1.21300
F          8.88700        4.32500       -0.45100
F          1.30700        7.98600        4.36100
F          2.74100        8.38300        2.92500
F          3.22300        7.22000        4.52900
F         -1.17300        4.16100        0.03600
F         -1.73100        5.99700        0.91100
F         -1.96300        4.20200        1.97700
F          8.73000        6.07300        0.27000
F          7.07200        5.66700       -1.04300
F          8.58900        4.16900       -0.73000
