289
C:\Users\Javier\OneDrive - Universitat de Barcelona\Tesi\4 - Contribucions\Treballs\3-PhD\chapter_1\cif\pc3p\JUBCIU.pc3p.pdb
F         -3.80700       -8.36500       34.76500
F         -5.40400       -7.12800       34.09600
F         -5.22200       -9.10100       33.42700
F         -2.54600       -0.50200       28.78600
F         -3.52200       -2.33200       28.61700
F         -2.17600       -1.68300       27.11600
C          0.56200       -6.03000       32.34400
C          1.36900       -6.53800       31.32000
C          2.35500       -7.49700       31.56900
C          2.58500       -7.94100       32.80000
C          1.77600       -7.47700       33.84400
C          0.82100       -6.53100       33.61700
C          3.20400       -7.98100       30.45700
C          1.92600       -8.00900       35.21300
C         -1.94500       -6.04900       31.77200
C         -2.70000       -6.59500       32.78900
C         -3.68100       -7.54400       32.57700
C         -3.92200       -8.00700       31.29200
C         -3.05200       -7.57400       30.25700
C         -2.18200       -6.54700       30.49400
C         -4.51500       -8.03900       33.70200
C         -3.21600       -8.16900       28.85500
C         -0.98000       -4.04300       33.35100
C         -2.26800       -3.63100       33.70300
C         -2.51000       -2.79500       34.77500
C         -1.45900       -2.28800       35.54600
C         -0.17400       -2.65300       35.18400
C          0.04900       -3.52000       34.11800
C         -3.89200       -2.45700       35.08000
C          0.98700       -2.10600       35.93600
C         -0.42900       -3.97500       30.81900
C          0.86200       -3.52700       30.49500
C          1.09600       -2.60100       29.52200
C          0.03000       -2.02700       28.82600
C         -1.24600       -2.42200       29.14100
C         -1.45900       -3.39000       30.11700
C          2.43800       -2.13400       29.24300
C         -2.39700       -1.80000       28.43000
B         -0.68600       -5.02600       32.07100
F         -4.75000       -3.48000       34.99000
F         -4.42100       -1.52800       34.29000
F         -4.08900       -1.97900       36.30800
F          0.97200       -7.66700       36.05800
F          3.02000       -7.64800       35.83500
F          1.95200       -9.31600       35.30500
F          3.38700       -3.02200       29.36000
F          2.87300       -1.16000       29.99800
F          2.64400       -1.66400       28.02400
F         -4.10800       -7.52600       28.16100
F         -3.59100       -9.42200       28.90100
F         -2.09500       -8.12700       28.17500
F          4.07200       -8.94300       30.83500
F          3.95500       -7.01400       29.90800
F          2.49500       -8.50900       29.44300
H          1.22900       -6.24400       30.43900
H          3.27800       -8.54100       32.96500
H          0.32000       -6.20900       34.34100
H         -2.52900       -6.31700       33.66900
H         -4.62700       -8.59200       31.11600
H         -1.74200       -6.15800       29.77300
H         -2.98500       -3.92900       33.18500
H         -1.62200       -1.71300       36.26700
H          0.92300       -3.76600       33.91700
H          1.57800       -3.86400       30.97800
H          0.18700       -1.37200       28.17700
H         -2.33000       -3.66800       30.29600
F          1.43400       -0.95500       35.44200
F          2.03400       -2.92000       35.94300
F          0.71400       -1.86400       37.21700
F          4.96300       -0.67600       38.03200
F          4.42900       -2.74500       37.92900
F          3.15500       -1.37600       38.93500
C          6.94500       -3.12900       41.17900
C          6.21900       -2.85700       40.02600
C          5.19900       -1.93600       40.00200
C          4.86300       -1.19700       41.12600
C          5.60500       -1.41400       42.27500
C          6.58500       -2.38000       42.30300
C          4.42800       -1.69500       38.75400
C          5.33800       -0.62100       43.55900
C          7.21300       -5.80300       39.45900
C          7.30400       -6.68600       38.38700
C          8.50900       -6.99300       37.84100
C          9.62900       -6.36300       38.29500
C          9.52700       -5.44500       39.35200
C          8.32900       -5.14000       39.98000
C         11.00000       -6.66700       37.74700
C          6.14000       -7.38600       37.88800
B          8.22700       -4.14000       41.27500
F          4.84600       -1.37800       44.50600
F          4.47900        0.35100       43.36100
F          6.43000       -0.07700       44.03100
F          5.87300       -8.53400       38.51000
F          6.20800       -7.73200       36.58400
F          4.98800       -6.69500       37.97900
H          6.43500       -3.31700       39.24400
H          4.15500       -0.58100       41.09900
H          7.03400       -2.54100       43.10200
H          6.38200       -5.64400       39.84900
H          8.56000       -7.62600       37.16400
H         10.30500       -5.03100       39.64600
F         10.95300       -7.36900       36.62000
F         11.73700       -7.36900       38.59100
F         11.69300       -5.56600       37.47300
C          8.52000       -7.09700       31.01700
C          9.50100       -7.00400       31.95800
C          9.02400       -7.79300       33.17400
C          7.92200       -6.97000       33.68600
C          6.91700       -7.06700       32.81100
C          7.41200       -7.95500       31.67700
C          8.25700       -8.94100       32.45800
C          8.04200       -4.11200       29.09600
C          8.20000       -3.03600       28.04500
C          6.55400       -4.38400       29.34400
C          8.14900       -3.76800       35.28700
C          9.67500       -3.82900       35.11100
C          7.77100       -2.61100       36.23900
C          5.50600       -3.67500       34.08700
C          4.68600       -3.73800       32.78300
C          5.12100       -4.77300       35.06100
P          8.94800       -3.82100       30.68700
P          7.30500       -3.66100       33.65400
Rh         8.14200       -5.31300       32.25500
C          8.44900       -2.02200       30.88200
C          8.53100       -1.48500       32.28800
C          7.31700       -1.88800       33.07500
H          8.67500       -7.04000       30.04800
H         10.44800       -6.87700       31.73200
H          9.70200       -8.06200       33.82300
H          7.78200       -6.81000       34.63800
H          5.97500       -6.98600       33.05300
H          6.73400       -8.32300       31.07200
H          7.73700       -9.50100       33.06400
H          8.82800       -9.49500       31.88600
H          8.41000       -4.93100       28.70500
H          9.11500       -3.01100       27.74800
H          7.96000       -2.18700       28.42500
H          7.62100       -3.23800       27.30700
H          6.46000       -5.17500       29.87700
H          6.17000       -3.62900       29.80000
H          6.11000       -4.50500       28.50200
H          7.87600       -4.60600       35.71100
H          9.89700       -4.55700       34.51700
H         10.11000       -3.94800       35.95900
H          9.95100       -2.99000       34.72000
H          6.82500       -2.62500       36.39300
H          8.23100       -2.70200       37.08100
H          8.03300       -1.78800       35.81500
H          5.29600       -2.82900       34.53300
H          5.14900       -3.24100       32.10600
H          3.81000       -3.36400       32.91500
H          4.61100       -4.65700       32.50800
H          5.85600       -4.92100       35.66100
H          4.34200       -4.50500       35.55100
H          4.93500       -5.57200       34.56100
H          7.60000       -1.70600       30.56500
H          8.92400       -1.57100       30.18600
H          9.33000       -1.82500       32.69500
H          8.63400       -0.56500       32.53500
H          7.00700       -1.26900       33.72400
H          6.72300       -1.89500       32.33700
C         10.74400       -4.38000       30.26800
C         11.36700       -3.75000       29.04100
C         11.67800       -4.28000       31.45700
H         10.69000       -5.31000       30.08100
H         12.24500       -4.08900       28.90300
H         11.40800       -2.81100       29.16700
H         10.83200       -3.94300       28.28100
H         12.55400       -4.57100       31.23100
H         11.34500       -4.80800       32.17200
H         11.70600       -3.36900       31.72600
F         -4.67000       -2.28000       34.01000
F         -4.04700       -1.33400       35.77700
F         -4.54500       -3.37300       35.79900
F          0.90100       -8.69500       35.66100
F          2.11400       -7.10400       36.14800
F          2.93600       -8.83200       35.38700
F          3.30800       -2.26700       30.21900
F          2.55200       -0.86200       28.93600
F          3.04900       -2.71500       28.24300
F         -4.47800       -8.27200       28.51800
F         -2.69600       -9.36600       28.77100
F         -2.63400       -7.43200       27.94600
F          3.48600       -9.29400       30.54300
F          4.39500       -7.35600       30.39500
F          2.63800       -7.80900       29.24600
F          1.82500       -1.41300       35.17000
F          1.72800       -3.05000       36.51400
F          0.63200       -1.27900       36.91700
F          4.27000       -1.04900       44.18200
F          5.15300        0.65500       43.31400
F          6.33600       -0.70700       44.40300
F          6.23800       -8.72200       37.91200
F          5.82500       -7.10900       36.60900
F          5.00700       -7.13500       38.55600
F         11.02800       -7.79500       37.04300
F         11.91000       -6.80200       38.70400
F         11.44500       -5.71400       36.93800
C          9.00600       -2.01800       31.13800
C          7.78600       -1.50000       31.83700
C          7.80900       -1.89000       33.29700
H          8.50800       -1.54800       33.87300
H          6.97500       -1.43700       33.49300
H          7.90400       -0.56000       31.78200
H          7.02000       -1.75100       31.33600
H          9.77700       -1.84300       31.66600
H          9.06100       -1.53400       30.32300
C         10.69000       -3.43600       30.36700
C         11.18700       -4.61700       29.55800
C         11.50000       -3.26400       31.63800
H         10.74900       -2.63900       29.85000
H         12.40100       -3.05900       31.41800
H         11.47400       -4.08200       32.12300
H         11.13500       -2.56900       32.16700
H         12.10900       -4.49800       29.33800
H         11.09500       -5.41500       30.07000
H         10.68000       -4.68200       28.76600
C          7.58000        6.81400       40.07500
C          6.88400        6.80500       41.26900
C          8.78400        7.64600       40.30100
C          8.22700        8.71400       41.27500
C          7.42700        3.65400       38.25900
C          6.71000        2.65000       37.38400
C          8.93400        3.64500       38.06600
C          5.19500        3.61000       40.13000
C          4.73500        3.64500       41.63800
C          4.66700        4.82100       39.40400
P          7.01100        3.49100       40.07900
Rh         8.22700        5.05800       41.27500
C          8.48400        1.29700       40.95900
H          7.15500        6.71700       39.19400
H          5.91300        6.71000       41.32400
H          9.26100        7.96700       39.50800
H          7.11900        4.54500       37.98400
H          5.77300        2.70100       37.57600
H          7.03500        1.76500       37.57600
H          6.86100        2.85900       36.45900
H          9.32600        4.35900       38.57300
H          9.27600        2.79400       38.36300
H          9.12700        3.76400       37.13100
H          4.82200        2.81500       39.70600
H          4.95800        2.82000       42.07300
H          5.20000        4.36400       42.06700
H          3.79000        3.79600       41.69800
H          4.96900        4.80800       38.49000
H          5.02000        5.59100       39.84900
H          3.70900        4.84000       39.42000
H          8.90000        9.26400       41.66000
C          7.27300        1.70600       40.43100
H          6.58000        1.42100       41.01600
H          7.18500        1.26300       39.59600
H          6.41300        1.30400       40.44900
H          7.76500        1.36500       39.69500
H          8.22700        0.32800       41.27500
H          9.13000        1.40400       40.26800
F         11.49200       -0.67600       44.51800
F         12.02500       -2.74500       44.62000
F         13.29900       -1.37600       43.61500
C          9.51000       -3.12900       41.37000
C         10.23600       -2.85700       42.52300
C         11.25500       -1.93600       42.54700
C         11.59200       -1.19700       41.42300
C         10.84900       -1.41400       40.27400
C          9.86900       -2.38000       40.24700
C         12.02600       -1.69500       43.79500
C         11.11700       -0.62100       38.99100
C          9.24200       -5.80300       43.09100
C          9.15100       -6.68600       44.16300
C          7.94500       -6.99300       44.70900
C          6.82600       -6.36300       44.25400
C          6.92700       -5.44500       43.19800
C          8.12500       -5.14000       42.56900
C          5.45400       -6.66700       44.80200
C         10.31400       -7.38600       44.66100
F         11.60900       -1.37800       38.04400
F         11.97500        0.35100       39.18800
F         10.02500       -0.07700       38.51800
F         10.58100       -8.53400       44.04000
F         10.24600       -7.73200       45.96600
F         11.46600       -6.69500       44.57100
H         10.01900       -3.31700       43.30500
H         12.29900       -0.58100       41.45100
H          9.42000       -2.54100       39.44800
H         10.07200       -5.64400       42.70000
H          7.89500       -7.62600       45.38600
H          6.14900       -5.03100       42.90400
F          5.50100       -7.36900       45.92900
F          4.71700       -7.36900       43.95900
F          4.76100       -5.56600       45.07600
