84
C:\Users\Javier\OneDrive - Universitat de Barcelona\Tesi\4 - Contribucions\Treballs\3-PhD\chapter_1\cif\pc3p\JUDFEV.pc3p.pdb
Ta         8.38100        1.11500        0.86100
Rh         8.04700        3.23900        2.53400
P          6.33600        3.94200        3.75500
P          9.41700        4.87300        3.16000
C          9.08800        1.77500       -1.23500
H         10.02300        1.87200       -1.37500
C          8.16400        2.79700       -0.85800
H          8.38100        3.71100       -0.71500
C          8.94600        6.43500        0.89700
H          8.57500        7.20000        1.38400
H          8.24500        5.76300        0.76400
H          9.28100        6.73400        0.02600
C         11.15400        6.88200        2.02600
H         11.44400        7.31600        1.19700
H         11.92200        6.45100        2.45500
H         10.77300        7.55200        2.63100
C          5.09600        5.25100        1.63600
H          5.71700        4.83900        1.00100
H          5.50400        6.05900        2.01200
H          4.26600        5.48800        1.17500
C          8.82700        6.22400        4.26600
H          9.61000        6.59400        4.74600
H          8.45800        6.94700        3.70100
C          6.88500        2.23300       -0.73300
H          6.09600        2.70800       -0.49600
C          8.08800       -1.11400        1.67900
H          7.33400       -1.63300        1.42000
C          7.77200        5.84400        5.30000
H          7.66300        6.59600        5.93700
H          8.09300        5.06000        5.81200
C         10.16800       -0.08300        1.66200
H         11.03800        0.20200        1.40600
C          8.31700        0.57200       -1.36000
H          8.65400       -0.27400       -1.63100
C          9.32100       -0.99000        0.95700
H          9.53800       -1.43700        0.14600
C          6.41300        5.51500        4.69200
H          6.15400        6.25300        4.08600
H          5.74400        5.47900        5.42100
C          6.95200        0.85600       -1.01000
H          6.23500        0.23400       -0.97200
C          4.17400        2.98900        2.19800
H          3.44300        3.22600        1.59000
H          3.82400        2.43900        2.92900
H          4.85700        2.48600        1.70800
C          9.44200        0.30800        2.83300
H          9.75600        0.90400        3.50500
C          8.19500       -0.32900        2.83000
H          7.53100       -0.24400        3.50300
C         10.09000        5.82300        1.70300
H         10.53000        5.15200        1.10600
C          4.79000        4.26000        2.76700
H          4.11700        4.68400        3.37500
C          5.76000        2.70100        5.00900
H          5.40000        1.92300        4.49300
C         10.96900        4.33800        4.03400
H         11.47800        5.16300        4.27800
C         10.62900        3.60100        5.33300
H         10.09600        2.80500        5.12700
H         10.11700        4.19400        5.92100
H         11.45800        3.33100        5.78200
C         11.87000        3.48200        3.15100
H         12.65400        3.19500        3.66500
H         12.16200        4.00800        2.37600
H         11.37500        2.69500        2.84400
C          6.92800        2.16500        5.83300
H          7.26400        2.87200        6.42200
H          7.64500        1.87300        5.23100
H          6.62600        1.40500        6.37300
C          4.61200        3.18900        5.91200
H          4.30800        2.45300        6.48200
H          3.86800        3.50000        5.35600
H          4.93000        3.92800        6.47400
H          7.03200        1.92200        1.94700
H          9.30300        2.64900        1.51900
C          7.52100        6.56200        4.26800
H          7.35000        7.41500        4.74000
H          7.29600        6.69900        3.31400
C          6.58500        5.49700        4.84200
H          5.69900        5.91900        4.98900
H          6.93400        5.21800        5.71900
C          9.00500        6.23600        4.37600
H          9.22500        5.95000        5.29300
H          9.54200        7.04700        4.16500
