160
C:\Users\Javier\OneDrive - Universitat de Barcelona\Tesi\4 - Contribucions\Treballs\3-PhD\chapter_1\cif\pc3p\KEPPEC.pc3p.pdb
C         11.22800        2.06500       13.71700
H         11.25500        2.99700       13.41700
H         11.33900        2.03000       14.68900
H         10.36800        1.66800       13.46900
C         11.98800        1.05400       11.58000
H         12.70100        0.55100       11.13200
H         11.87200        1.92000       11.13800
H         11.15100        0.54800       11.53200
C         12.46200       -0.07700       13.74100
H         11.57200       -0.48900       13.77700
H         12.80200        0.04800       14.65200
H         13.07200       -0.66000       13.24200
C         12.36800        1.27700       13.04300
C         15.34500        0.48600       11.51200
H         16.22300        0.15300       11.23200
H         14.98300        1.07500       10.81800
H         14.73700       -0.27100       11.64900
C         15.77800        0.31300       13.96400
H         15.02800       -0.31000       14.06300
H         15.89500        0.81700       14.79700
H         16.59600       -0.18700       13.76900
C         16.68400        2.23500       12.70100
H         16.82400        2.70000       13.55200
H         16.49900        2.89200       11.99700
H         17.49100        1.72700       12.46900
C         15.49000        1.27400       12.83200
C         14.11900        2.74400       14.95200
H         13.74400        2.00400       15.49100
H         15.08600        2.80000       15.16300
C         13.46100        4.04400       15.41300
H         13.43400        4.06100       16.40100
H         12.52800        4.06700       15.08300
C         14.20200        5.29500       14.91000
H         15.16900        5.17300       15.08100
H         13.90100        6.06900       15.44900
C         12.63900        8.15200       13.69300
H         13.28500        8.65900       13.15700
H         12.98500        8.04200       14.60200
H         11.78700        8.63500       13.72100
C         11.94700        6.94600       11.60400
H         11.15900        7.52900       11.59200
H         11.71500        6.07400       11.21800
H         12.66500        7.35600       11.07700
C         11.29600        6.06500       13.84800
H         11.50600        6.09400       14.80300
H         11.21800        5.13100       13.55800
H         10.44800        6.52900       13.68500
C         12.42000        6.75600       13.05100
C         16.67900        5.69400       12.55000
H         16.49100        5.10300       11.78900
H         16.76800        5.15900       13.36500
H         17.51200        6.18300       12.38700
C         15.90500        7.67000       13.84400
H         15.95300        7.18700       14.69500
H         15.22400        8.37200       13.90200
H         16.77600        8.07500       13.64800
C         15.36000        7.46600       11.38900
H         14.67700        8.15900       11.50600
H         15.08200        6.84900       10.68100
H         16.21300        7.88300       11.14400
C         15.53200        6.68500       12.71500
C          9.39800        3.09700        8.30900
H         10.36200        3.09400        8.13600
H          8.91300        3.22700        7.46800
H          9.13400        2.24000        8.70900
C          9.62700        3.93700       10.67500
H          9.24500        3.09700       11.00500
H          9.39800        4.66500       11.29300
H         10.60200        3.85200       10.61500
C          9.71600        5.55400        8.76600
H          9.52600        6.28600        9.38900
H          9.35200        5.77600        7.88200
H         10.68400        5.42400        8.69700
C          9.05500        4.24800        9.28500
C          6.95700        4.80700        6.69500
H          6.78300        3.84700        6.59900
H          7.92200        4.96800        6.68300
H          6.53400        5.29100        5.95500
C          6.56900        6.81600        8.14200
H          7.52300        7.01800        8.23200
H          6.09000        7.14400        8.93100
H          6.21700        7.25600        7.33900
C          4.87400        5.01900        8.02700
H          4.45600        5.47000        7.26500
H          4.48400        5.35700        8.86000
H          4.72000        4.05400        7.96100
C          6.37500        5.29600        8.01900
C          6.61500        2.71000        9.49400
H          6.54000        2.40800        8.55400
H          7.32200        2.16500        9.92000
C          5.28800        2.38600       10.19600
H          5.02600        1.45600        9.98500
H          4.58200        2.98900        9.85200
C          5.39200        2.54900       11.72900
H          6.18200        2.03800       12.03700
H          4.59400        2.12700       12.13500
C          7.87200        3.77000       13.77900
H          8.26200        4.56400       13.35700
H          7.97200        2.99900       13.18400
H          8.33500        3.59100       14.62400
C          5.85400        2.80500       14.83100
H          6.32100        2.73800       15.69000
H          6.00500        1.98800       14.31200
H          4.89200        2.91800       14.99000
C          6.27300        5.27500       14.94000
H          5.33800        5.39800       15.21000
H          6.57300        6.06000       14.43700
H          6.83000        5.16500       15.73900
C          6.39100        4.01500       14.05100
C          2.92900        4.46600       11.34300
H          2.81200        3.49300       11.35500
H          3.38300        4.72900       10.51400
H          2.05200        4.90100       11.38900
C          3.08300        4.35400       13.82300
H          3.60000        4.62200       14.61200
H          3.03500        3.37800       13.78100
H          2.17800        4.72500       13.88600
C          3.79900        6.41700       12.60400
H          4.15600        6.77200       11.76300
H          4.37000        6.70600       13.34700
H          2.89000        6.75400       12.74100
C          3.77500        4.89300       12.54400
C         15.37600        4.19800        8.05100
C          6.92800        9.62100       11.26600
C          2.83000       -0.16200       13.43700
C          7.13300       -1.55100       11.23800
O         13.70300        5.20000        9.80000
O         13.81000        2.84600        9.71900
O         12.81600        4.06400        7.83600
O          8.87200        8.81900       12.79100
O          6.80100        7.48300       12.73500
O          8.25000        7.42800       10.85000
O          0.64300       -1.43900       13.81900
O          2.15500       -1.12100       15.70900
O          0.89500        0.73700       14.84100
O          6.96600       -0.04100       13.28000
O          9.06600       -1.14600       12.87600
O          8.37000        0.68600       11.45300
F         15.48700        3.29700        7.13000
F         16.34100        4.05600        8.93300
F         15.48200        5.39800        7.49000
F          7.73200       10.29200       10.43700
F          6.50600       10.46200       12.20400
F          5.88000        9.18800       10.57800
F          3.51000       -1.29300       13.10700
F          3.70200        0.67800       13.96600
F          2.38700        0.35300       12.30600
F          7.91300       -1.97800       10.24200
F          6.71400       -2.63600       11.88400
F          6.08100       -0.99600       10.65700
P         13.95300        2.29900       13.18700
P         13.97800        5.70100       13.15000
P          7.18100        4.42700        9.47400
P          5.52500        4.23100       12.38200
S         13.74200        4.06900        8.88400
S          7.83700        8.23000       12.00800
S          1.47300       -0.54900       14.58500
S          7.99500       -0.38400       12.33300
Pd        13.85500        3.99200       11.66500
Pd         6.81100        5.72900       11.28300
