91
C:\Users\Javier\OneDrive - Universitat de Barcelona\Tesi\4 - Contribucions\Treballs\3-PhD\chapter_1\cif\pc3p\KIHNAQ01.pc3p.pdb
Pd         2.33600        2.99800        4.11000
P          2.47200        2.98500        1.86800
P          4.57400        3.76900        4.24100
N          1.74100        3.20300        6.18300
C          3.61400        4.28200        1.26200
C          5.10900        3.99600        1.49000
C          5.49800        3.20800        2.75600
C          0.49500        2.10100        4.02300
C         -0.00700        1.18200        3.09900
C         -1.30900        0.70100        3.21100
C         -2.12100        1.11500        4.24200
C         -1.62700        1.99600        5.19000
C         -0.32300        2.47900        5.08600
C          0.25500        3.43300        6.08700
C          2.00500        1.95400        6.94100
C          2.34300        4.34600        6.91900
C          3.06900        1.46900        1.07700
C          3.43300        1.45500       -0.27700
C          3.86000        0.28400       -0.87000
C          3.94400       -0.87100       -0.12800
C          3.63800       -0.86800        1.22000
C          3.20100        0.29500        1.82700
C          0.86200        3.39400        1.10200
C          0.37300        2.74100       -0.02400
C         -0.92000        2.98600       -0.46500
C         -1.72500        3.87800        0.20700
C         -1.23300        4.57000        1.30300
C          0.06000        4.32700        1.74900
C          4.99400        5.53900        4.30400
C          6.31600        5.99100        4.36000
C          6.58400        7.35100        4.32300
C          5.54700        8.26300        4.20400
C          4.24800        7.82700        4.11600
C          3.96100        6.46300        4.17100
C          5.44900        2.94500        5.60800
C          5.45300        1.55000        5.63500
C          6.04100        0.87000        6.68600
C          6.63000        1.57100        7.72100
C          6.63400        2.94700        7.71300
C          6.03700        3.64400        6.66400
P         10.83200        7.74200        4.37700
F         11.76300        6.42900        4.33900
F          9.76200        8.92700        4.54200
F          9.71800        6.73600        5.04500
F         11.87000        8.67800        3.85400
F         10.20300        7.35400        3.02600
F         11.35400        8.02400        5.85600
F         11.61500        6.49400        4.66300
F         10.27700        9.18500        3.93700
F          9.92500        7.73300        5.49400
F         11.92100        7.86900        3.11700
F         11.95200        8.49500        5.21100
F          9.90100        7.17900        3.32500
H          3.46900        4.39000        0.37900
H          3.33100        5.08000        1.72100
H          5.42300        3.52400        0.71200
H          5.59700        4.80900        1.53300
H          6.42600        3.31100        2.91900
H          5.29000        2.29800        2.67900
H          0.53800        0.90300        2.37900
H         -1.59800        0.06300        2.54300
H         -2.99600        0.74500        4.32100
H         -2.11400        2.25600        5.88200
H         -0.09600        3.33800        6.94400
H          0.12400        4.39900        5.78100
H          1.52700        1.17700        6.49900
H          1.65200        2.03400        7.80400
H          2.97500        1.78600        7.01300
H          2.23100        5.13900        6.41600
H          3.31300        4.18700        7.03000
H          1.91200        4.42400        7.79900
H          3.36500        2.24800       -0.77400
H          4.09400        0.25900       -1.78000
H          4.21900       -1.63500       -0.51300
H          3.74700       -1.60300        1.75000
H          3.00100        0.29000        2.70300
H          0.85900        2.14300       -0.41900
H         -1.22900        2.48900       -1.17500
H         -2.60900        4.01600       -0.06600
H         -1.76600        5.15500        1.77000
H          0.35700        4.78800        2.49400
H          7.02300        5.39100        4.42500
H          7.42300        7.65300        4.38800
H          5.73500        9.13800        4.20300
H          3.58400        8.40400        4.07000
H          3.06800        6.18500        4.12700
H          5.07200        1.05200        4.95700
H          6.05500       -0.03400        6.67500
H          7.03100        1.09300        8.46300
H          7.01100        3.44900        8.38800
H          6.01800        4.57700        6.68000
