83
C:\Users\Javier\OneDrive - Universitat de Barcelona\Tesi\4 - Contribucions\Treballs\3-PhD\chapter_1\cif\pc3p\KUFQOU.pc3p.pdb
Ru         5.07000        7.65500       10.65300
Cl         5.87100        8.81600        8.60900
Cl         6.94000        6.11300       10.62100
P          4.48900        6.67400       12.59400
P          3.81400        6.18300        9.46100
C          2.07800        6.71800        9.22500
N          3.73800        9.27200       10.66200
H          3.83700        9.74200        9.88900
H          2.88600        8.95300       10.68700
N          6.14800        9.18100       11.69100
C          4.44500        4.83600       12.56300
H          5.33100        4.49500       12.28400
H          4.26500        4.50000       13.47700
C          3.38100        4.29600       11.61500
H          2.52200        4.74600       11.81300
H          3.26000        3.32900       11.79200
C          3.70300        4.48600       10.13500
H          3.01400        4.00200        9.61400
H          4.56800        4.03800        9.95700
C          4.28500        5.70600        7.74400
C          5.62900        5.61500        7.39900
H          6.29600        5.92100        8.00200
C          5.99800        5.07300        6.16500
H          6.91700        5.00800        5.93400
C          5.03700        4.63200        5.28000
H          5.29300        4.24300        4.45200
C          3.68900        4.75900        5.60500
H          3.02500        4.48500        4.98500
C          3.31500        5.28600        6.83400
H          2.39400        5.36000        7.05500
C          0.98100        6.03000        9.72500
H          1.10300        5.16800       10.10400
C         -0.29600        6.58500        9.67900
H         -1.03100        6.11000       10.04800
C         -0.49800        7.82000        9.10100
H         -1.36500        8.20500        9.08600
C          0.57900        8.49600        8.54300
H          0.44100        9.33300        8.11400
C          1.85600        7.95400        8.60700
H          2.58700        8.42700        8.22800
C          5.66000        7.04800       13.95200
C          5.51700        8.23200       14.68800
H          4.77900        8.80500       14.51900
C          6.44400        8.57200       15.65800
H          6.34100        9.38100       16.14400
C          7.52100        7.74100       15.92500
H          8.15300        7.97600       16.59500
C          7.67000        6.56000       15.20400
H          8.39900        5.98000       15.39100
C          6.75400        6.22400       14.20900
H          6.87500        5.42900       13.70300
C          2.87900        7.01900       13.40600
C          1.79400        7.43700       12.64100
H          1.90900        7.58400       11.70900
C          0.54100        7.64600       13.21400
H         -0.19200        7.91700       12.67600
C          0.37600        7.45500       14.57300
H         -0.46700        7.62400       14.97700
C          1.43000        7.01900       15.34200
H          1.30500        6.86800       16.27100
C          2.66800        6.80100       14.76900
H          3.38800        6.49800       15.31100
C          3.94700       10.18500       11.81200
H          3.54500        9.73600       12.61100
C          5.43800       10.27400       12.06700
C          6.04600       11.33300       12.72700
H          5.53700       12.09300       12.98300
C          7.39700       11.27300       13.00900
H          7.82600       11.98900       13.46200
C          8.11600       10.15400       12.62100
H          9.04700       10.09200       12.80400
C          7.46300        9.13000       11.96300
H          7.95800        8.36500       11.69500
C          3.19700       11.51800       11.63200
H          3.38800       12.08800       12.43100
C          1.68700       11.26300       11.58800
H          1.21100       12.11900       11.62300
H          1.42700       10.71300       12.35600
H          1.45900       10.79500       10.75800
C          3.64100       12.28800       10.39300
H          3.41900       11.77100        9.59000
H          4.60900       12.43500       10.42900
H          3.18000       13.15200       10.36200
