81
C:\Users\Javier\OneDrive - Universitat de Barcelona\Tesi\4 - Contribucions\Treballs\3-PhD\chapter_1\cif\pc3p\LAJPUJ.pc3p.pdb
Ru         2.22900        0.67500        2.31300
Cl         3.40800       -0.37000        4.04900
Cl         2.10600        2.66100        3.65800
P          2.42600       -1.46500        1.24700
P          4.40800        1.33900        1.60500
N          1.36200        1.40800        0.99900
N          0.33100        0.10000        3.27800
O          0.76300        1.88700        0.17200
C          0.24100       -0.19300        4.54900
H          1.01200       -0.16000        5.06600
C         -0.95100       -0.55500        5.16800
H         -0.96000       -0.71900        6.08300
C         -2.11900       -0.67400        4.44300
C         -2.01000       -0.29800        3.14200
H         -2.77200       -0.29300        2.61100
C         -0.81800        0.07300        2.59000
H         -0.80300        0.31800        1.69400
C         -3.38200       -1.18300        5.04700
H         -3.26000       -2.09400        5.32300
H         -4.08800       -1.13700        4.39800
H         -3.61200       -0.64500        5.80900
C          1.37800       -2.67400        2.07500
C          1.85800       -3.42400        3.15000
H          2.74900       -3.34800        3.40600
C          1.01700       -4.27700        3.83700
H          1.34500       -4.78200        4.54500
C         -0.29300       -4.37700        3.47800
H         -0.86100       -4.93200        3.96400
C         -0.77500       -3.68800        2.43600
H         -1.66600       -3.79200        2.18700
C          0.05200       -2.80600        1.71400
H         -0.29200       -2.31900        1.00000
C          2.02300       -1.54800       -0.52900
C          2.33200       -0.48800       -1.37200
H          2.62300        0.31800       -1.00900
C          2.21100       -0.61400       -2.74400
H          2.45500        0.09000       -3.30000
C          1.72900       -1.79000       -3.27900
H          1.62600       -1.86900       -4.20100
C          1.39900       -2.85000       -2.46100
H          1.06000       -3.63400       -2.82900
C          1.57700       -2.74300       -1.08300
H          1.39700       -3.47100       -0.53300
C          4.11900       -2.14400        1.26400
H          4.40000       -2.27100        2.18300
H          4.11300       -3.01400        0.83400
C          5.13400       -1.24900        0.55400
H          4.74500       -0.92200       -0.27200
H          5.91500       -1.77700        0.32600
C          5.31200        2.43600        2.76400
C          5.99500        1.90800        3.84400
H          5.96000        0.99200        4.00100
C          6.72900        2.71600        4.69200
H          7.19500        2.35100        5.41000
C          6.75600        4.07700        4.45400
H          7.25500        4.63000        5.01000
C          6.05500        4.62300        3.40800
H          6.06500        5.54300        3.27500
C          5.33300        3.81300        2.55300
H          4.86500        4.18300        1.84100
C          4.37900        2.24200        0.04200
C          5.24100        1.94300       -1.01500
H          5.86600        1.26000       -0.91900
C          5.17500        2.64200       -2.19200
H          5.76300        2.43900       -2.88100
C          4.25400        3.63700       -2.35800
H          4.21100        4.09900       -3.16300
C          3.39300        3.95600       -1.34300
H          2.76700        4.63300       -1.46100
C          3.45200        3.28000       -0.14700
H          2.87300        3.51100        0.54200
C          5.57400       -0.04800        1.41100
H          6.39300        0.30500        1.02900
H          5.79100       -0.37900        2.29700
P         -2.51600       -0.43700       -1.22800
F         -2.55000       -1.76000       -0.49200
F         -2.49600        0.91600       -1.94000
F         -4.01200       -0.62900       -1.61900
F         -2.98400        0.29800        0.08500
F         -1.05600       -0.24000       -0.74900
F         -2.08900       -1.15100       -2.53800
