82
C:\Users\Javier\OneDrive - Universitat de Barcelona\Tesi\4 - Contribucions\Treballs\3-PhD\chapter_1\cif\pc3p\LAJPOD.pc3p.pdb
Ru        -2.19900       -0.67400      -12.50100
Cl        -3.40400        0.40500      -14.20700
Cl        -2.10600       -2.65200      -13.87100
P         -4.37800       -1.33600      -11.78100
P         -2.37500        1.45100      -11.40900
O         -0.69300       -1.94000      -10.39800
N         -1.32000       -1.43200      -11.22800
N         -0.30500       -0.11500      -13.50700
C         -0.25500        0.06300      -14.82900
H         -1.04600        0.01000      -15.31500
C          0.92400        0.32300      -15.50600
H          0.91700        0.46300      -16.42600
C          2.09100        0.37000      -14.81200
H          2.89600        0.53800      -15.24500
C          2.05100        0.16500      -13.47800
H          2.83900        0.18300      -12.98500
C          0.85200       -0.06900      -12.84000
H          0.84800       -0.19700      -11.91800
C         -5.27600       -2.40600      -12.96300
C         -6.03600       -1.86100      -13.99700
H         -6.07600       -0.93600      -14.09600
C         -6.73000       -2.66700      -14.88400
H         -7.23400       -2.29500      -15.57200
C         -6.65900       -4.03800      -14.72800
H         -7.13100       -4.59000      -15.30900
C         -5.90500       -4.60000      -13.72800
H         -5.85900       -5.52600      -13.65300
C         -5.20500       -3.79800      -12.83100
H         -4.69800       -4.18100      -12.15200
C         -4.32600       -2.26000      -10.23500
C         -5.18700       -1.98400       -9.15100
H         -5.82000       -1.30600       -9.22700
C         -5.10300       -2.70400       -7.98700
H         -5.68300       -2.52100       -7.28300
C         -4.15300       -3.70500       -7.86200
H         -4.07700       -4.17400       -7.06300
C         -3.33900       -4.00300       -8.89000
H         -2.71900       -4.68900       -8.79600
C         -3.40200       -3.31000      -10.08100
H         -2.83400       -3.53800      -10.78100
C         -5.54000        0.05400      -11.54600
H         -5.77100        0.39700      -12.42500
H         -6.35200       -0.30100      -11.15400
C         -5.08100        1.24200      -10.68400
H         -4.69000        0.90400       -9.86500
H         -5.85500        1.77600      -10.44600
C         -1.31700        2.64300      -12.24200
C         -1.79000        3.38900      -13.31800
H         -2.68800        3.35100      -13.55600
C         -0.90700        4.19200      -14.03600
H         -1.21600        4.68500      -14.76100
C          0.41000        4.26100      -13.68100
H          0.99400        4.78600      -14.18000
C          0.87700        3.56900      -12.60200
H          1.76800        3.64900      -12.34900
C          0.02200        2.74500      -11.87900
H          0.34600        2.26300      -11.15200
C         -1.96000        1.50000       -9.63500
C         -2.25800        0.43700       -8.79400
H         -2.55100       -0.36700       -9.15900
C         -2.12700        0.55200       -7.43500
H         -2.34800       -0.16400       -6.88500
C         -1.66500        1.73500       -6.88300
H         -1.57600        1.81700       -5.96100
C         -1.33600        2.79500       -7.70800
H         -1.00200        3.58200       -7.34300
C         -1.50200        2.68900       -9.06700
H         -1.30800        3.41700       -9.61300
C         -4.05400        2.13900      -11.39900
H         -4.03600        3.00300      -10.95900
H         -4.34100        2.27900      -12.31400
F          2.92800       -0.68700      -10.09900
F          2.06100        1.49600       -7.97300
F          2.41100       -0.74900       -7.89500
F          2.79400        1.47800      -10.05000
P          2.49700        0.42200       -8.95500
F          1.04500        0.10700       -9.37700
F          4.00800        0.64600       -8.56400
F          2.95100        0.05800      -10.26400
F          2.20400        1.78800       -9.38900
F          2.13500        0.64300       -7.51900
F          2.91600       -0.96900       -8.83700
