92
C:\Users\Javier\OneDrive - Universitat de Barcelona\Tesi\4 - Contribucions\Treballs\3-PhD\chapter_1\cif\pc3p\LEBBAW.pc3p.pdb
Pd         5.85300        5.41800        8.83500
Ni         4.18100        4.47900        6.82300
S          3.97400        3.90900        8.88400
S          4.29500        6.54500        7.38700
P          7.18200        4.15100       10.17200
P          7.47600        6.99400        8.62000
O          4.43300        0.50000        6.91800
O          5.65800        6.38000        3.65500
N          4.32600        2.72300        6.33900
N          4.70300        4.87300        5.10400
C          8.25300        5.07300       11.33300
H          7.67800        5.60100       11.94300
H          8.75900        4.42400       11.88200
C          9.25200        6.02800       10.64400
H          9.70700        5.54900        9.90800
H          9.94000        6.30900       11.29900
C          8.54300        7.28300       10.07900
H          9.23300        7.94800        9.83300
H          7.99000        7.68000       10.79700
C          8.27900        3.07800        9.19900
C          7.87200        2.65800        7.93200
H          7.05100        2.96900        7.57000
C          8.65200        1.79800        7.21000
H          8.36800        1.51200        6.35000
C          9.83300        1.35500        7.72100
H         10.38000        0.77900        7.20100
C         10.25400        1.72800        8.97900
H         11.06500        1.38500        9.33600
C          9.47800        2.61200        9.71800
H          9.76800        2.89900       10.57600
C          6.30700        3.05600       11.30600
C          6.64900        1.71700       11.47400
H          7.37800        1.34900       10.99000
C          5.92800        0.92800       12.34700
H          6.15300        0.01100       12.44400
C          4.90900        1.44100       13.06000
H          4.42500        0.87600       13.64900
C          4.53500        2.81300       12.95500
H          3.83100        3.18000       13.47600
C          5.25800        3.58300       12.04800
H          5.02600        4.49500       11.93200
C          8.57400        6.53900        7.25700
C          8.13900        5.63300        6.29700
H          7.25500        5.29000        6.35800
C          8.93800        5.22200        5.27100
H          8.61300        4.62200        4.60900
C         10.25400        5.70600        5.22200
H         10.82900        5.40900        4.52600
C         10.72800        6.58200        6.13300
H         11.61500        6.91800        6.06700
C          9.90000        6.98000        7.16200
H         10.23900        7.57200        7.82400
C          6.84100        8.67800        8.31000
C          7.38800        9.49000        7.31500
H          8.09800        9.17900        6.76400
C          6.85200       10.78800        7.15000
H          7.21900       11.36100        6.48800
C          5.80900       11.23400        7.92700
H          5.44400       12.10200        7.79900
C          5.31100       10.40400        8.88700
H          4.59700       10.70700        9.43600
C          5.81700        9.13300        9.08700
H          5.45000        8.57500        9.76400
C          4.37400        2.49900        4.88900
H          3.46300        2.33100        4.53800
H          4.93800        1.70900        4.68400
C          4.95800        3.72900        4.24700
H          5.93300        3.61300        4.12200
H          4.54400        3.87500        3.36000
C          4.37600        1.69000        7.20100
C          4.33400        2.13400        8.65000
H          5.20600        1.92800        9.07000
H          3.64200        1.60400        9.12200
C          5.14500        6.07900        4.74300
C          4.97600        7.16700        5.79400
H          4.37100        7.86400        5.43700
H          5.85600        7.58600        5.96400
O         -0.36000        0.73000        5.57100
C          0.44400        2.12800        5.90900
H          1.15600        2.32800        5.25100
H         -0.16100        2.90700        6.00600
C          0.93000        1.69800        7.08800
H          1.48000        2.40100        7.49100
H          1.47800        0.89800        6.94200
H          0.18600        1.47900        7.68700
C         -1.50800       -0.38700        5.30700
H         -2.17200       -0.23000        6.02500
H         -1.94900       -0.08900        4.47100
C         -1.45800       -1.82500        5.18500
H         -2.32100       -2.15800        4.86700
H         -1.25500       -2.22000        6.06000
H         -0.75600       -2.07400        4.54700
