105
C:\Users\Javier\OneDrive - Universitat de Barcelona\Tesi\4 - Contribucions\Treballs\3-PhD\chapter_1\cif\pc3p\LISCEV.pc3p.pdb
Pd         1.73900       32.05300        2.39200
P          3.48600       33.06500        1.50500
P          2.10000       33.13500        4.31100
O          0.38600       30.65700        3.32200
H          0.82700       30.39200        4.07000
H         -0.40000       30.77000        3.51300
O          1.28600       31.46300        0.26400
O          4.03000       30.07100        1.87700
O          1.88000       30.16800        5.42900
O         -0.28400       35.24300        3.98400
B          6.44000       34.30100       -1.39700
B         -2.93500       31.08200        5.12200
F          6.74200       34.74000       -0.16000
F          6.33100       32.91800       -1.39700
F          5.20300       34.82300       -1.74800
F          7.36400       34.69300       -2.32100
F         -3.66500       29.99900        5.48400
F         -3.75000       32.18500        4.91800
F         -2.24500       30.84500        3.91800
F         -2.00600       31.40300        6.09400
C          3.83100       34.78900        1.91000
H          4.63200       35.08600        1.40800
H          3.06800       35.35100        1.62200
C          4.07300       35.00200        3.41100
H          4.76400       34.36300        3.72000
H          4.42100       35.91700        3.55500
C          2.80800       34.81200        4.24600
H          2.11400       35.42300        3.89500
H          3.00800       35.09600        5.17300
C          3.13700       32.94000       -0.26800
H          2.54600       33.68700       -0.54300
H          3.98200       33.01100       -0.77900
C          2.46200       31.61200       -0.58200
H          2.19600       31.58700       -1.53600
H          3.09200       30.86800       -0.41500
C          0.03800       31.12500       -0.43600
C          0.24400       29.80700       -1.16400
H          0.92600       29.92000       -1.85900
H         -0.59900       29.52700       -1.57800
H          0.53700       29.12400       -0.52600
C         -0.32000       32.25200       -1.39200
H          0.36900       32.32100       -2.08600
H         -0.37100       33.09500       -0.89700
H         -1.18500       32.06300       -1.81000
C         -1.00600       30.99400        0.64400
H         -1.11800       31.85600        1.09500
H         -0.72100       30.31900        1.29400
H         -1.85800       30.72300        0.24200
C          5.06100       32.22500        1.86400
H          5.79000       32.74200        1.43700
H          5.21200       32.25600        2.84200
C          5.17900       30.77400        1.41300
H          5.23000       30.72600        0.42500
H          6.00100       30.36700        1.78800
C          4.10300       28.61800        1.86500
C          4.56000       28.08600        0.51900
H          5.48200       28.37200        0.35000
H          3.97500       28.43400       -0.18500
H          4.52000       27.10800        0.52400
C          2.68100       28.19500        2.16400
H          2.41100       28.55000        3.03700
H          2.62800       27.21700        2.18100
H          2.08400       28.54300        1.47000
C          5.04600       28.12800        2.96400
H          5.96100       28.40800        2.75900
H          5.00600       27.15200        3.01600
H          4.77100       28.51000        3.82400
C          3.18900       32.21200        5.44500
H          4.11400       32.54600        5.33000
H          2.91400       32.41500        6.37500
C          3.19800       30.71600        5.27100
H          3.54100       30.49400        4.37000
H          3.80500       30.31200        5.94100
C          1.63600       29.19100        6.47200
C          1.93200       29.82900        7.78300
H          2.88500       30.05100        7.83200
H          1.70300       29.21100        8.50800
H          1.40100       30.65000        7.87500
C          2.49900       27.98000        6.27100
H          3.44200       28.23000        6.34900
H          2.33300       27.60600        5.38100
H          2.28300       27.30800        6.95300
C          0.21100       28.84400        6.35900
H          0.04500       28.42700        5.48800
H         -0.33200       29.65500        6.44000
H         -0.03000       28.21600        7.07300
C          0.51200       33.33900        5.18200
H          0.22800       32.45500        5.52800
H          0.65500       33.93400        5.96100
C         -0.62000       33.91500        4.33100
H         -0.73900       33.37100        3.51200
H         -1.46800       33.90100        4.84100
C         -1.03900       35.84700        2.88900
C         -0.53800       35.25300        1.57500
H          0.42700       35.40200        1.49600
H         -0.99700       35.68900        0.82600
H         -0.72200       34.29000        1.56000
C         -2.52900       35.64500        3.06300
H         -2.74000       34.69000        2.99200
H         -3.00900       36.13900        2.36600
H         -2.80300       35.97600        3.94500
C         -0.68200       37.31800        2.99500
H          0.28500       37.42900        2.88000
H         -0.94800       37.65800        3.87500
H         -1.15300       37.81700        2.29600
