91
C:\Users\Javier\OneDrive - Universitat de Barcelona\Tesi\4 - Contribucions\Treballs\3-PhD\chapter_1\cif\pc3p\LONWOD.pc3p.pdb
Pd         7.77900        2.68200        4.93400
P          6.80200        1.17900        3.60800
O          6.79900        4.14800        3.79600
O          8.66600        4.54400        2.63300
C          7.49700        4.75200        2.97200
C          6.72300        5.85200        2.23600
F          6.91300        7.00900        2.84700
F          7.16400        6.01900        0.99100
F          5.42200        5.64100        2.14500
O          4.70400       -0.37700        2.21900
O          9.30700        0.90500        2.19600
C          7.20200       -0.59400        3.79300
H          6.44200       -1.02200        4.22200
H          7.27300       -0.97100        2.90300
C          8.40700       -0.99500        4.56300
H          9.18400       -0.57600        4.16200
H          8.51900       -1.95500        4.49400
C          5.00900        1.29300        3.83000
C          4.47700        2.19700        4.73900
H          5.04700        2.75400        5.21600
C          3.10300        2.28200        4.94600
H          2.75400        2.89800        5.55000
C          2.28500        1.45500        4.25900
H          1.36900        1.49600        4.41900
C          2.75200        0.56400        3.34100
H          2.16200        0.01900        2.87200
C          4.12200        0.47900        3.11000
C          3.87700       -1.12300        1.34600
H          3.21800       -1.60100        1.85700
H          4.41300       -1.74800        0.85300
H          3.43600       -0.52800        0.73600
C          7.13600        1.63500        1.88800
C          6.17400        2.25900        1.11300
H          5.32100        2.39200        1.45900
C          6.46500        2.69400       -0.18200
H          5.81100        3.10500       -0.70100
C          7.72700        2.50600       -0.67900
H          7.92600        2.79600       -1.53900
C          8.69700        1.90400        0.06300
H          9.54300        1.77300       -0.29600
C          8.41800        1.48400        1.35600
C         10.66900        0.72200        1.74900
H         10.67500        0.16900        0.96500
H         11.17900        0.30000        2.44300
H         11.05500        1.57600        1.54100
H          6.57700       -1.13100        3.28000
H          8.09500       -0.76200        3.45800
P          8.75700        1.17900        6.26000
O         10.85400       -0.37700        7.64900
O          6.25200        0.90500        7.67200
C          8.35700       -0.59400        6.07500
H          9.11700       -1.02200        5.64700
H          8.28600       -0.97100        6.96500
C          7.15200       -0.99500        5.30500
H          6.37500       -0.57600        5.70600
H          7.04000       -1.95500        5.37400
C         10.55000        1.29300        6.03800
C         11.08200        2.19700        5.13000
H         10.51200        2.75400        4.65200
C         12.45600        2.28200        4.92200
H         12.80500        2.89800        4.31800
C         13.27400        1.45500        5.60900
H         14.19000        1.49600        5.44900
C         12.80600        0.56400        6.52700
H         13.39700        0.01900        6.99700
C         11.43700        0.47900        6.75800
C         11.68200       -1.12300        8.52200
H         12.34100       -1.60100        8.01100
H         11.14600       -1.74800        9.01600
H         12.12200       -0.52800        9.13200
C          8.42300        1.63500        7.98000
C          9.38500        2.25900        8.75500
H         10.23800        2.39200        8.41000
C          9.09400        2.69400       10.05000
H          9.74800        3.10500       10.56900
C          7.83200        2.50600       10.54700
H          7.63300        2.79600       11.40800
C          6.86200        1.90400        9.80500
H          6.01600        1.77300       10.16400
C          7.14100        1.48400        8.51200
C          4.89000        0.72200        8.12000
H          4.88400        0.16900        8.90300
H          4.38000        0.30000        7.42500
H          4.50400        1.57600        8.32700
O          8.76000        4.14800        6.07200
O          6.89300        4.54400        7.23500
C          8.06100        4.75200        6.89600
C          8.83500        5.85200        7.63200
F          8.64600        7.00900        7.02100
F          8.39500        6.01900        8.87700
F         10.13700        5.64100        7.72300
