61
C:\Users\Javier\OneDrive - Universitat de Barcelona\Tesi\4 - Contribucions\Treballs\3-PhD\chapter_1\cif\pc3p\LOSDEC.pc3p.pdb
W          2.15200        1.95200       14.94000
Pd         3.01200       -0.78900       15.49300
S          3.97500        0.93300       14.19700
S          1.20500        0.49000       16.33300
S          2.66600        3.76900       15.99400
S          0.83100        2.40300       13.32100
P          4.79100       -2.03200       14.77400
P          1.94400       -2.64400       16.29400
C          5.23400       -3.42900       15.85600
C          4.13200       -4.46900       16.07300
C          2.99100       -4.00500       16.91700
C          6.34900       -1.10500       14.61000
C          6.83400       -0.72700       13.36800
C          7.99100        0.04500       13.32600
C          8.64400        0.39000       14.46400
C          8.19600       -0.00900       15.67300
C          7.01200       -0.75800       15.79100
C          4.49800       -2.80000       13.15700
C          3.34700       -2.48400       12.43500
C          3.11600       -3.08000       11.21700
C          4.03800       -3.97400       10.71600
C          5.15400       -4.28600       11.38600
C          5.38900       -3.70500       12.62300
C          0.98200       -3.29500       14.90900
C          0.22900       -2.40200       14.13300
C         -0.50100       -2.86000       13.07200
C         -0.42900       -4.18100       12.72200
C          0.29500       -5.09100       13.43000
C          1.01400       -4.64200       14.56800
C          0.73600       -2.39200       17.62500
C          1.20100       -1.89300       18.84000
C          0.30900       -1.59600       19.85400
C         -1.06400       -1.82600       19.63500
C         -1.49300       -2.33100       18.46400
C         -0.60600       -2.61200       17.46200
H          6.04100       -3.92700       15.43000
H          5.33100       -2.95800       16.61300
H          4.61400       -5.17900       16.29400
H          3.76700       -4.61600       15.13700
H          3.11300       -3.72000       17.71700
H          2.34800       -4.67700       17.11400
H          6.18000       -0.92400       12.43100
H          8.37500        0.11800       12.55100
H          9.50300        0.70200       14.47500
H          8.68400        0.14700       16.56000
H          6.66900       -1.19900       16.80100
H          2.79700       -1.88600       12.75700
H          2.34100       -3.02500       10.71700
H          3.86900       -4.37900        9.84800
H          5.86700       -4.70000       11.17700
H          6.14000       -3.78200       12.94300
H          0.21300       -1.63900       14.43700
H         -1.03600       -2.08500       12.51200
H         -0.90900       -4.47300       11.92000
H          0.48400       -6.25800       13.28400
H          1.73100       -5.31500       15.01000
H          2.17300       -1.77000       18.94700
H          0.73100       -1.14400       20.61100
H         -1.56900       -1.59100       20.26500
H         -2.45300       -2.45500       18.21300
H         -0.95300       -2.94200       16.66700
