180
C:\Users\Javier\OneDrive - Universitat de Barcelona\Tesi\4 - Contribucions\Treballs\3-PhD\chapter_1\cif\pc3p\LUTXAZ.pc3p.pdb
Ru         4.10600        3.20400        1.68900
Cl         2.92900        5.23200        1.05400
Cl         5.17000        1.03600        1.75200
P          2.47700        2.80100        3.19700
P          5.25500        4.33600        3.27900
N          3.05300        2.34600       -0.00400
H          2.84200        1.47200        0.19100
H          2.26300        2.80300       -0.12400
N          5.51000        3.54700        0.06800
H          5.95400        4.34000        0.20600
H          6.13300        2.86900        0.05100
C          0.93800        2.18200        2.40400
C          0.11300        3.08700        1.69600
H          0.31700        4.01600        1.69400
C         -0.99700        2.62100        1.00100
H         -1.54000        3.23000        0.51300
C         -1.31500        1.27400        1.01300
H         -2.08400        0.96100        0.55000
C         -0.50000        0.37500        1.71200
H         -0.71600       -0.55000        1.72300
C          0.60200        0.82000        2.37500
H          1.15600        0.19500        2.82600
C          2.64900        1.65200        4.61000
C          1.55100        1.44500        5.48500
H          0.72900        1.88900        5.31500
C          1.66000        0.59800        6.59400
H          0.92300        0.46200        7.17800
C          2.89500       -0.05100        6.82400
H          2.98400       -0.63900        7.56300
C          3.96000        0.15600        5.99500
H          4.79200       -0.26200        6.18300
C          3.83700        0.97500        4.87500
H          4.57300        1.07200        4.28300
C          1.92500        4.30700        4.09500
H          1.63300        4.98800        3.43800
H          1.14700        4.08000        4.66300
C          3.04100        4.90300        4.97900
H          2.64200        5.59900        5.55900
H          3.38700        4.18700        5.56900
C          4.21100        5.51600        4.22600
H          4.78700        5.98900        4.87800
H          3.85700        6.19400        3.59700
C          6.55000        5.49900        2.63400
C          6.24500        6.31900        1.55200
H          5.38400        6.27800        1.15600
C          7.20900        7.20500        1.04500
H          6.98800        7.76700        0.31400
C          8.46900        7.26900        1.59700
H          9.12300        7.85800        1.24300
C          8.76300        6.44800        2.69100
H          9.62000        6.49900        3.09500
C          7.83600        5.57500        3.18600
H          8.06600        5.01200        3.91600
C          6.23100        3.46400        4.54900
C          6.18400        3.75400        5.91800
H          5.56300        4.39600        6.24500
C          7.04500        3.10200        6.80100
H          6.98400        3.28800        7.73100
C          7.96700        2.21000        6.35700
H          8.56300        1.79600        6.97100
C          8.03600        1.90200        4.99500
H          8.67800        1.28100        4.67200
C          7.15600        2.51800        4.12700
H          7.18500        2.28600        3.20600
C          3.82900        2.37800       -1.28900
H          4.37200        1.54200       -1.35800
C          4.78900        3.59700       -1.24600
H          4.24100        4.43100       -1.27300
C          2.91800        2.47300       -2.50700
C          1.93900        3.45700       -2.56900
H          1.84900        4.07400       -1.85300
C          1.09300        3.55300       -3.66300
H          0.40500        4.20800       -3.67600
C          1.24700        2.70000       -4.72500
H          0.67400        2.76400       -5.48100
C          2.24100        1.75100       -4.68400
H          2.35800        1.17100       -5.42800
C          3.07900        1.61700       -3.58500
H          3.75300        0.94800       -3.57100
C          5.74500        3.61000       -2.43500
C          6.61700        2.54800       -2.68400
H          6.63500        1.80800       -2.09100
C          7.44300        2.56000       -3.77000
H          8.03200        1.83000       -3.92400
C          7.42700        3.63200       -4.65200
H          7.99000        3.62800       -5.41700
C          6.59100        4.70900       -4.41300
H          6.59100        5.45800       -4.99800
C          5.75000        4.68500       -3.31000
H          5.16700        5.41700       -3.15200
Ru         2.39200        5.30000       11.84900
Cl         3.49500        3.21000       12.38200
Cl         1.37100        7.48500       11.84200
P          1.19900        4.25000       10.23600
P          4.00900        5.72500       10.34000
N          1.01700        4.90600       13.49700
H          0.17000        5.17400       13.25800
H          0.99200        4.00200       13.66400
N          3.49300        6.05800       13.58800
H          4.38700        5.85500       13.50700
H          3.40800        6.97200       13.63900
C         -0.12100        3.10800       10.83600
C          0.15100        2.24400       11.89700
H          1.01300        2.24700       12.29600
C         -0.82100        1.38100       12.37900
H         -0.62600        0.81500       13.11500
C         -2.06800        1.34000       11.79500
H         -2.71900        0.72700       12.11100
C         -2.36900        2.18000       10.76300
H         -3.23800        2.17000       10.38000
C         -1.39000        3.06000       10.26800
H         -1.59800        3.62800        9.53600
C          0.24300        5.18900        8.97400
C         -0.64600        6.15700        9.46200
H         -0.66600        6.36300       10.39000
C         -1.49900        6.81300        8.57600
H         -2.12900        7.44100        8.91000
C         -1.44000        6.56000        7.22100
H         -2.01200        7.02600        6.62200
C         -0.54300        5.62200        6.73800
H         -0.49100        5.45600        5.80400
C          0.27600        4.92700        7.60100
H          0.86600        4.26600        7.26000
C          2.19600        3.07400        9.23900
H          2.51700        2.35200        9.83500
H          1.60500        2.66000        8.56100
C          3.42500        3.68800        8.50700
H          3.81400        2.99400        7.91800
H          3.10600        4.42500        7.92900
C          4.52700        4.22700        9.40400
H          5.31500        4.44800        8.84800
H          4.79600        3.52200       10.04500
C          5.56400        6.28100       11.14400
C          5.86500        7.62600       11.24800
H          5.29700        8.26800       10.83700
C          7.00700        8.05900       11.96000
H          7.21700        8.98400       12.00800
C          7.81000        7.14100       12.57800
H          8.58200        7.42200       13.05200
C          7.48700        5.79900       12.50300
H          8.03100        5.16000       12.94700
C          6.37700        5.37500       11.78500
H          6.17600        4.44800       11.73500
C          3.85700        6.93400        8.95100
C          2.64900        7.56400        8.68200
H          1.89400        7.40500        9.23600
C          2.54900        8.43600        7.58800
H          1.73200        8.88900        7.41500
C          3.65600        8.64100        6.74900
H          3.58900        9.20800        5.99100
C          4.81300        8.01700        7.03900
H          5.56700        8.17100        6.48300
C          4.94400        7.16300        8.11500
H          5.77400        6.73300        8.28300
C          1.42600        5.61900       14.72600
H          1.26400        6.59500       14.57400
C          2.92900        5.41800       14.82400
H          3.09000        4.43500       14.73200
C          0.63900        5.21700       15.95400
C          0.83400        3.97900       16.56000
H          1.43900        3.35000       16.18300
C          0.14200        3.67300       17.71100
H          0.29700        2.83600       18.13400
C         -0.77300        4.54800       18.26800
H         -1.25500        4.31100       19.05100
C         -0.96700        5.76100       17.67000
H         -1.58700        6.37700       18.04400
C         -0.25800        6.10400       16.50900
H         -0.39600        6.95100       16.10300
C          3.60700        5.84300       16.10400
C          3.15100        6.84400       16.94200
H          2.36900        7.33000       16.70500
C          3.81200        7.15200       18.11400
H          3.46300        7.81500       18.69700
C          4.96600        6.50200       18.43400
H          5.44200        6.75100       19.21700
C          5.44000        5.51600       17.66400
H          6.23300        5.05800       17.91100
C          4.76100        5.15900       16.48400
H          5.09100        4.44900       15.94600
