186
C:\Users\Javier\OneDrive - Universitat de Barcelona\Tesi\4 - Contribucions\Treballs\3-PhD\chapter_1\cif\pc3p\MAZTUF.pc3p.pdb
Pd         3.53400       27.13700        4.65700
P          5.12800       27.21300        2.90200
C          6.87100       27.27100        3.43600
C          7.16800       27.13400        4.79400
H          6.46200       27.06100        5.42400
C          8.48700       27.10300        5.23100
H          8.68100       26.99000        6.15400
C          9.52200       27.23900        4.31100
H         10.42400       27.24000        4.60700
C          9.23500       27.37400        2.96600
H          9.94400       27.46300        2.34100
C          7.92400       27.38200        2.52100
H          7.73900       27.46200        1.59300
C          4.89900       28.53300        1.65400
C          3.78900       28.44500        0.81400
H          3.16600       27.73500        0.92400
C          3.59200       29.39500       -0.18500
H          2.83500       29.33200       -0.75500
C          4.48800       30.42400       -0.34700
H          4.36300       31.05400       -1.04600
C          5.56900       30.54100        0.50400
H          6.16300       31.27600        0.40900
C          5.79600       29.59600        1.49700
H          6.55300       29.67100        2.06500
C          5.02500       25.73800        1.81400
H          4.08600       25.63100        1.51800
H          5.57400       25.90600        1.00600
C          5.48500       24.42700        2.44500
H          6.47000       24.37700        2.36200
H          5.10700       23.68300        1.91300
C          5.12200       24.18800        3.91700
H          5.84300       24.56700        4.47900
H          5.10600       23.21100        4.07600
P          3.52100       24.88900        4.48800
C          3.33900       23.96900        6.03700
C          2.34600       23.01200        6.26100
H          1.70200       22.82900        5.58600
C          2.29600       22.33400        7.45800
H          1.61500       21.68900        7.60500
C          3.23300       22.58300        8.45100
H          3.20400       22.09900        9.26800
C          4.21600       23.54300        8.24300
H          4.85600       23.72200        8.92200
C          4.26200       24.23800        7.05100
H          4.92700       24.90400        6.91800
C          2.29000       24.26900        3.30500
C          1.38800       25.16600        2.73400
H          1.38200       26.07500        3.01100
C          0.49200       24.72800        1.75400
H         -0.12000       25.33800        1.35900
C          0.49900       23.41200        1.36800
H         -0.11800       23.11200        0.71000
C          1.39400       22.50900        1.92600
H          1.39000       21.60200        1.64800
C          2.30200       22.93900        2.89100
H          2.92600       22.32800        3.26600
C          1.99500       27.16800        6.02400
C          1.00300       26.20400        6.28800
H          1.04700       25.36300        5.84800
C         -0.03700       26.45000        7.17500
H         -0.67900       25.77300        7.35200
C         -0.13900       27.68000        7.79800
H         -0.85300       27.85100        8.40100
C          0.79700       28.65500        7.54200
H          0.71600       29.50800        7.95200
C          1.87000       28.39600        6.67700
C          2.97000       29.39800        6.47500
H          2.61000       30.32100        6.61400
C          4.08600       29.12600        7.49300
H          4.77300       29.82000        7.42000
H          4.48700       28.25000        7.31200
H          3.71000       29.13200        8.39800
N          3.45500       29.26000        5.06100
C          2.42300       29.82500        4.14200
H          1.57800       29.34500        4.26600
H          2.72200       29.72600        3.21400
H          2.29200       30.77500        4.34400
C          4.71100       30.04100        4.87300
H          5.46000       29.55600        5.27900
H          4.61800       30.91700        5.30300
H          4.88100       30.16200        3.91600
Pd        -2.78900       18.92600        7.16700
C         -6.12000       18.73100        8.44400
C         -7.13300       18.57800        9.39000
H         -6.90500       18.45500       10.30500
C         -8.47300       18.60300        9.01300
H         -9.15500       18.49800        9.66700
C         -8.81000       18.78300        7.67900
H         -9.72100       18.78400        7.41400
C         -7.81000       18.96100        6.73800
H         -8.04000       19.10500        5.82700
C         -6.47000       18.92800        7.11300
H         -5.79200       19.04000        6.45800
C         -4.15200       17.29600       10.04100
C         -3.05400       17.26400       10.90500
H         -2.42700       17.97800       10.88800
C         -2.86600       16.22100       11.78300
H         -2.12800       16.23200       12.38100
C         -3.75300       15.15200       11.79500
H         -3.61300       14.42000       12.38500
C         -4.84200       15.15600       10.94300
H         -5.45900       14.43300       10.95700
C         -5.03600       16.21200       10.07100
H         -5.78100       16.20000        9.48100
C         -4.23000       20.09600       10.14000
H         -4.78800       19.87400       10.92800
H         -3.29100       20.14900       10.44700
C         -4.64900       21.47500        9.62400
H         -4.23700       22.15900       10.20900
H         -5.63100       21.55400        9.72600
C         -4.29500       21.81800        8.17200
H         -4.26300       22.80400        8.08600
H         -5.02700       21.49400        7.59000
P         -2.71600       21.13700        7.53700
C         -2.54000       22.10200        6.01400
C         -1.58400       23.10300        5.83800
H         -0.97500       23.31700        6.53500
C         -1.53500       23.78500        4.62100
H         -0.88700       24.46800        4.49600
C         -2.40200       23.48800        3.60500
H         -2.35000       23.95900        2.78200
C         -3.35800       22.50000        3.78000
H         -3.97300       22.30500        3.08300
C         -3.41600       21.79600        4.97400
H         -4.05600       21.10200        5.08400
P         -4.36700       18.72600        8.93100
C         -1.46600       21.67300        8.74500
C         -0.60700       20.70800        9.29200
H         -0.63400       19.81500        8.96900
C          0.28400       21.05000       10.30300
H          0.84900       20.39500       10.69300
C          0.33300       22.36900       10.72900
H          0.95600       22.61500       11.40400
C         -0.49700       23.32700       10.19700
H         -0.44200       24.22500       10.50100
C         -1.42900       22.97600        9.20300
H         -2.02400       23.62700        8.85000
C         -1.24900       19.03200        5.80900
C         -0.21400       19.96100        5.72200
H         -0.22000       20.72300        6.28900
C          0.83600       19.78700        4.80800
H          1.52400       20.44000        4.74900
C          0.87500       18.68100        3.99600
H          1.59200       18.56400        3.38400
C         -0.13900       17.73300        4.07400
H         -0.11100       16.96000        3.52300
C         -1.20100       17.91900        4.96600
C         -2.36500       16.94700        5.01600
H         -3.11000       17.36600        4.49700
C         -2.10000       15.59000        4.37700
H         -1.91900       15.70800        3.42100
H         -2.88600       15.01500        4.49200
H         -1.32500       15.17200        4.80700
N         -2.82300       16.89200        6.46500
C         -4.15100       16.24200        6.53000
H         -4.78800       16.74400        5.98000
H         -4.46300       16.22700        7.45800
H         -4.08300       15.32400        6.19300
C         -1.86400       16.12700        7.30900
H         -0.96500       16.50300        7.20400
H         -1.86000       15.18800        7.02900
H         -2.13600       16.18700        8.24800
P         -4.11200       26.33900        9.43400
F         -3.39400       25.69700        8.21200
F         -4.68000       26.93000       10.69200
F         -3.67800       27.78800        8.98900
F         -4.53800       24.87600        9.86600
F         -2.77900       26.07800       10.21800
F         -5.37400       26.52000        8.59800
P          5.01800       19.31000        2.67700
F          3.78300       19.62300        1.76100
F          4.28700       20.13900        3.80300
F          4.29900       18.02900        3.24800
F          6.21300       19.06400        3.65900
F          5.70400       20.63400        2.15000
F          5.70300       18.57100        1.53600
C          2.85000       26.00200        9.94500
H          3.69300       26.22200        9.47600
H          2.25600       25.54000        9.30200
Cl         2.09700       27.45700       10.45700
Cl         3.21500       24.88000       11.33000
C          9.15500       19.79600        2.04400
H          9.87500       20.04900        2.67500
H          8.29700       19.80600        2.53800
Cl         9.45800       18.17500        1.42600
Cl         9.08800       20.97900        0.72000
