128
C:\Users\Javier\OneDrive - Universitat de Barcelona\Tesi\4 - Contribucions\Treballs\3-PhD\chapter_1\cif\pc3p\MIGSEA.pc3p.pdb
Pd        10.54900        2.53200       13.70400
P         12.19900        3.90800       14.42900
P          9.99500        3.90100       11.99000
C         12.92500        5.11400       13.29400
H         13.47800        5.75100       13.81200
H         13.52300        4.64000       12.66200
C         11.88200        5.90200       12.49300
H         11.18300        6.23000       13.11300
H         12.32000        6.69400       12.08800
C         11.21900        5.09600       11.39200
H         11.91900        4.61000       10.89000
H         10.77600        5.71800       10.76400
C         11.70300        4.87600       15.88300
C         10.41200        4.74100       16.38100
H          9.78500        4.18600       15.93300
C         10.03800        5.42000       17.53600
H          9.15600        5.32900       17.87600
C         10.95500        6.23400       18.19100
H         10.70000        6.69800       18.98000
C         12.24600        6.36700       17.69100
H         12.87200        6.92400       18.14100
C         12.61900        5.68800       16.53800
H         13.50200        5.78100       16.19700
C         13.60400        2.90300       14.94900
C         13.86200        2.62400       16.28600
H         13.32000        3.00900       16.96400
C         14.91300        1.78200       16.62900
H         15.08900        1.59000       17.54300
C         15.70500        1.21700       15.63600
H         16.42200        0.64100       15.87300
C         15.44700        1.49600       14.29900
H         15.99000        1.11100       13.62000
C         14.39700        2.33800       13.95600
H         14.22000        2.53000       13.04200
C          8.48100        4.85400       12.30800
C          7.98200        5.73200       11.35400
H          8.44100        5.84700       10.52900
C          6.81600        6.44400       11.60700
H          6.47700        7.04700       10.95400
C          6.14800        6.27700       12.81400
H          5.35100        6.76400       12.98700
C          6.64500        5.39800       13.76700
H          6.18900        5.28300       14.59300
C          7.81200        4.68600       13.51500
H          8.15300        4.08600       14.16800
C          9.64600        2.88400       10.54100
C         10.72400        2.28000        9.90500
H         11.60900        2.43900       10.21300
C         10.50700        1.43900        8.81900
H         11.24500        1.02600        8.38400
C          9.21400        1.20500        8.36800
H          9.06500        0.63100        7.62500
C          8.13600        1.81200        9.00400
H          7.25200        1.65100        8.69600
C          8.35300        2.65100       10.09000
H          7.61600        3.06400       10.52500
N         11.05000        1.15700       15.21100
C         10.46600        1.15100       16.40600
H          9.84500        1.84000       16.60700
C         10.71300        0.19100       17.38100
H         10.28800        0.23600       18.22900
C         11.60600       -0.84300       17.08200
C         12.23300       -0.82600       15.83600
H         12.88200       -1.48100       15.60700
C         11.88500        0.16900       14.94700
H         12.27600        0.14300       14.08200
N         11.83800       -1.78000       18.06100
H         11.50200       -1.60200       18.85400
C         12.53500       -2.96500       17.95100
O         13.16100       -3.25900       16.94500
N         16.84000      -11.19700       21.73500
C         15.55400      -11.13400       22.18700
H         15.23600      -11.83000       22.75200
C         14.71200      -10.12900       21.86400
H         13.81200      -10.15700       22.16500
C         15.14100       -9.05200       21.10300
C         16.45600       -9.11700       20.61900
H         16.79400       -8.43300       20.05100
C         17.24600      -10.17100       20.97500
H         18.14300      -10.17900       20.66400
N         14.27000       -8.00000       20.86800
H         13.45100       -8.09900       21.17300
C         14.53500       -6.81700       20.21700
O         15.60600       -6.62100       19.65500
C         13.47000       -5.78900       20.23400
C         11.58600       -4.66000       21.19800
H         10.95500       -4.57500       21.90200
C         11.52500       -3.76500       20.13900
H         10.85000       -3.09800       20.09900
C         12.49100       -3.87800       19.13200
C         13.42700       -4.88600       19.18000
H         14.05900       -4.96700       18.47600
C         12.52700       -5.67400       21.26800
H         12.53600       -6.27700       22.00200
F          7.33200        2.98700       19.31200
F          5.68200        1.77400       19.09600
F          7.46800        1.22600       18.32400
C          6.71600        2.27000       18.49600
S          6.38400        3.07800       16.93100
O          5.37900        3.98700       17.27900
O          7.65100        3.39800       16.46500
O          5.74900        2.10000       16.10100
F          1.95800       -0.32700       10.91600
F          3.76500        0.69700       11.06900
F          1.97500        1.53200       11.89500
C          2.70700        0.38300       11.72100
S          2.99500       -0.39700       13.28900
O          3.75800        0.61500       13.96900
O          3.77100       -1.54400       12.91600
O          1.70900       -0.64700       13.84200
C         14.60300       -1.41100       11.90000
H         14.28300       -1.55200       12.81900
H         15.41100       -0.84300       11.93500
H         14.82800       -2.26800       11.49600
C         13.62900       -0.77400       11.16300
C         13.68200       -0.88700        9.75900
H         12.92000       -0.42900        9.35300
H         13.66400       -1.83800        9.49900
H         14.51800       -0.48600        9.42300
O         12.80600       -0.12500       11.67900
O         14.22100        3.26500       10.29900
H         13.66700        2.90300       10.82200
C         15.47000        3.18500       10.84700
H         15.76600        4.09600       11.08500
H         16.09000        2.80400       10.19900
H         15.44300        2.63600       11.65300
N          9.11700        1.11900       13.09900
Pd        18.27200      -12.61000       22.33900
