346
C:\Users\Javier\OneDrive - Universitat de Barcelona\Tesi\4 - Contribucions\Treballs\3-PhD\chapter_1\cif\pc3p\MILTEJ.pc3p.pdb
Rh        -1.15100       20.58600       14.84600
P         -1.68500       22.19200       16.43000
P         -0.35900       22.12000       13.32600
C         -1.36700       18.82600       16.19000
H         -1.37900       19.07100       17.09000
C         -2.44900       18.86200       15.35200
H         -3.37400       19.20100       15.55300
C         -2.09800       18.02600       14.11600
H         -2.85500       17.71100       13.54500
C         -1.00700       18.88500       13.44000
H         -1.00700       19.14600       12.56500
C          0.08200       18.85500       14.28200
H          0.98600       19.08800       14.07000
C         -0.29500       17.97300       15.47500
H          0.45300       17.61400       16.03400
C         -1.20200       16.94900       14.76800
H         -1.69500       16.36900       15.40100
H         -0.71600       16.39800       14.10400
C         -1.28200       23.95900       16.07800
H         -1.88000       24.52500       16.62600
H         -0.35500       24.12900       16.38300
C         -1.39500       24.41700       14.62500
H         -2.25700       24.10300       14.25300
H         -1.39700       25.40700       14.59800
C         -0.25700       23.89700       13.74900
H          0.60000       24.06100       14.21700
H         -0.24200       24.42100       12.90900
C         -3.46000       22.28000       16.96100
H         -3.57700       23.12400       17.48500
C         -3.84800       21.11400       17.87300
H         -3.62300       20.26100       17.42500
H         -3.32400       21.16600       18.71100
C         -5.33900       21.12700       18.21100
H         -5.56200       20.31700       18.73600
H         -5.54100       21.91800       18.77000
C         -6.19800       21.16500       16.96300
H         -7.15300       21.19700       17.21900
H         -6.04800       20.34300       16.43200
C         -5.85300       22.38100       16.12600
H         -6.04900       23.20300       16.64200
H         -6.41400       22.39000       15.31000
C         -4.37100       22.37000       15.72700
H         -4.16000       23.19600       15.22300
H         -4.19600       21.59700       15.13300
C         -0.74700       21.85000       17.98700
H         -1.11800       20.99900       18.35700
C         -0.93200       22.90700       19.07600
H         -0.57700       23.77500       18.75700
H         -1.89700       23.02100       19.26400
C         -0.20800       22.50000       20.35800
H         -0.29400       23.22600       21.02500
H         -0.63700       21.69000       20.73200
C          1.27300       22.21600       20.11200
H          1.68800       21.88600       20.94800
H          1.73100       23.05500       19.85300
C          1.45700       21.17600       19.00800
H          2.42300       21.05900       18.82500
H          1.09700       20.30600       19.31500
C          0.74600       21.58900       17.72000
H          0.84100       20.87200       17.04500
H          1.16600       22.41000       17.35900
C         -1.37500       21.98700       11.78000
H         -1.00300       21.21300       11.26800
C         -1.33000       23.18800       10.83200
H         -1.75700       23.96900       11.26500
H         -0.38700       23.42200       10.63700
C         -2.05700       22.86400        9.52500
H         -1.57700       22.13700        9.05500
H         -2.04900       23.66200        8.94000
C         -3.50800       22.43400        9.77400
H         -4.02600       23.20700       10.11300
H         -3.91500       22.14300        8.92000
C         -3.58000       21.29700       10.78200
H         -3.17900       20.48300       10.38600
H         -4.52900       21.10100       10.98600
C         -2.84800       21.64000       12.07400
H         -2.89000       20.87000       12.69400
H         -3.29000       22.41100       12.51000
C          1.37200       21.67400       12.85100
H          1.34400       20.72300       12.54300
C          2.01200       22.47500       11.71800
H          2.06400       23.43000       11.97200
H          1.45500       22.40200       10.90200
C          3.42500       21.93600       11.43200
H          3.35400       21.01500       11.07600
H          3.85100       22.49800       10.73700
C          4.30500       21.92400       12.67300
H          4.46500       22.85400       12.97200
H          5.18000       21.51700       12.45300
C          3.64700       21.13600       13.79600
H          4.21200       21.18200       14.60700
H          3.56700       20.18500       13.53100
C          2.26200       21.69700       14.10500
H          2.34800       22.62700       14.43300
H          1.83900       21.15800       14.82000
Rh         8.86400       29.13600       14.68800
P          8.04500       30.60000       16.26200
P          9.37300       30.80600       13.17100
C         13.92000       29.95500       12.62400
H         13.80100       29.10400       13.11600
H         14.87500       30.03600       12.37500
C          8.75000       27.38200       16.02500
H          8.70700       27.60900       16.94300
C          7.66700       27.36200       15.18400
C          8.06300       26.53300       13.95000
H          7.32400       26.18300       13.37400
C          9.12100       27.43500       13.27900
H          9.06500       27.65300       12.38800
C         10.20000       27.45800       14.12000
H         11.18700       27.78300       13.98400
C          9.84800       26.56700       15.31700
H         10.60700       26.24000       15.88000
C          8.98500       25.50200       14.61900
H          9.49500       24.96000       13.96600
H          8.50700       24.91400       15.25600
C          7.88600       32.38300       15.89600
H          7.02900       32.53300       15.42300
H          7.84600       32.87900       16.75200
C          9.01600       32.96000       15.05100
H          9.88300       32.65400       15.41900
H          8.99200       33.94800       15.11200
C          8.92600       32.54900       13.58100
H          9.51500       33.14800       13.05800
H          7.99800       32.70800       13.27400
C          9.07800       30.45300       17.79700
H          8.71200       29.67000       18.30000
C          9.02700       31.63700       18.76500
H          8.08400       31.86500       18.96300
H          9.45400       32.42600       18.34800
C          9.75500       31.28700       20.06600
H          9.75100       32.07700       20.66300
H          9.26800       30.55700       20.52500
C         11.19700       30.85000       19.82300
H         11.72600       31.62700       19.51200
H         11.59200       30.53500       20.67500
C         11.28000       29.73900       18.78800
H         10.88200       28.91300       19.16300
H         12.23100       29.55400       18.58300
C         10.54800       30.11300       17.49500
H         10.59000       29.35500       16.85900
H         10.99000       30.89300       17.07600
C          6.34000       30.07100       16.74200
H          6.40500       29.10900       17.00400
C          5.70000       30.79800       17.92000
H          5.59900       31.75900       17.70600
H          6.28100       30.71900       18.71800
C          4.32100       30.18500       18.21800
H          4.43800       29.24900       18.51800
H          3.89200       30.68900       18.95400
C          3.40900       30.21100       16.99100
H          2.55000       29.76900       17.20800
H          3.21700       31.15000       16.74200
C          4.05700       29.50600       15.82900
H          3.47100       29.57200       15.03400
H          4.17200       28.54700       16.04700
C          5.42100       30.12500       15.51100
H          5.30000       31.06700       15.22900
H          5.84200       29.63200       14.76200
C         11.14900       30.97100       12.65400
H         11.24500       31.83800       12.16600
C         11.57500       29.85400       11.70500
H         11.04800       29.91500       10.86900
H         11.38400       28.97700       12.12300
C         13.06700       29.94100       11.37100
H         13.32300       29.16600       10.81000
H         13.23800       30.76500       10.85000
C         13.52600       31.11600       13.51300
H         13.69500       31.96800       13.03800
H         14.08000       31.10600       14.33300
C         12.04500       31.03000       13.89700
H         11.80100       31.82100       14.44000
H         11.89500       30.22200       14.44900
C          8.43900       30.48500       11.60300
H          8.82400       29.65000       11.21100
C          8.58900       31.57300       10.53500
H          8.21700       32.42400       10.87600
H          9.54900       31.71300       10.34000
C          7.86200       31.17900        9.25000
H          7.92600       31.92000        8.59600
H          8.30100       30.38500        8.85500
C          6.39500       30.86600        9.51500
H          5.96800       30.55700        8.67700
H          5.93100       31.69000        9.80800
C          6.24400       29.78900       10.58800
H          6.62200       28.93700       10.25400
H          5.28300       29.64500       10.77600
C          6.96000       30.18900       11.88000
H          6.88700       29.45600       12.54100
H          6.52700       30.99300       12.26300
H          6.79100       27.55800       15.39000
F         -0.23100       15.57100       20.16400
F          0.24900       16.96500       18.68000
F          1.30800       15.09000       18.79700
F         -4.19100        9.17500       17.67400
F         -5.76300       10.33100       16.88800
F         -5.51700        8.28500       16.30000
F         -4.00900        8.02600       11.73800
F         -4.39900       10.01100       11.06500
F         -2.41700        9.24300       11.04700
F          0.15100        9.28600       19.05300
F          1.71100       10.64500       19.36700
F          2.11500        8.58500       18.75500
F          3.94400        8.68300       14.30400
F          3.71100       10.50700       13.29000
F          2.44500        8.91500       12.84700
C         -1.59000       13.87600       12.80300
H         -2.48900       13.57900       12.88100
C         -1.47600       13.48900       16.16400
C         -2.79500       13.94000       16.30100
H         -3.46500       13.58200       15.73100
C         -3.15500       14.90000       17.24900
C         -2.21100       15.45000       18.09800
H         -2.45700       16.09300       18.75300
C         -0.89300       15.03600       17.96500
C         -0.53200       14.08300       17.01800
H          0.38000       13.82500       16.94700
C         -4.57800       15.37800       17.33400
C          0.13100       15.65200       18.86700
C         -0.63300       13.39200       13.71300
C         -1.26500       14.77600       11.79200
C          0.03700       15.24100       11.64100
H          0.26300       15.84400       10.94400
C          0.99200       14.79900       12.53800
C          0.66600       13.89900       13.55000
H          1.34600       13.61800       14.15100
C         -2.31700       15.28600       10.86300
C          2.38800       15.34600       12.45200
C         -2.23400       11.37200       14.64200
C         -3.06000       10.86600       15.65800
H         -2.97500       11.21900       16.53600
C         -3.99800        9.86500       15.42600
C         -4.16500        9.32500       14.15900
H         -4.81500        8.65200       13.99300
C         -3.35200        9.80000       13.14400
C         -2.40400       10.79600       13.37800
H         -1.85800       11.09200       12.65900
C         -4.88400        9.41700       16.55400
C         -3.55400        9.28100       11.75300
C          0.19500       11.46500       15.44500
C          0.31100       10.98900       16.75300
H         -0.29100       11.31200       17.41300
C          1.27700       10.05900       17.12300
C          2.18500        9.56100       16.20500
H          2.85100        8.93500       16.46100
C          2.08700       10.01100       14.89300
C          1.11000       10.93000       14.52000
H          1.06100       11.20500       13.61200
C          1.35600        9.64800       18.56100
C          3.05100        9.52700       13.85800
B         -1.03700       12.43800       14.98200
F         -4.83100       16.03700       18.41800
F         -4.86500       16.10200       16.31600
F         -5.42900       14.37600       17.34800
F         -2.39800       16.64700       10.92600
F         -3.51700       14.88000       11.09600
F         -2.03300       15.11300        9.59300
F          2.65400       16.15300       13.45300
F          3.29300       14.35900       12.53500
F          2.61900       15.97200       11.31600
F         -4.67800       16.69900       17.15600
F         -5.39200       14.91100       16.42000
F         -5.12400       15.20500       18.48700
F         -1.86600       15.70800        9.74900
F         -3.10300       16.12200       11.35000
F         -3.09600       14.24700       10.46300
F          3.32600       14.67500       13.06400
F          2.82600       15.50600       11.23000
F          2.45100       16.57400       13.00400
F          9.85900       17.76300       18.66200
F         11.67600       18.79900       18.92400
F         11.66000       16.74600       18.23200
F         13.37700       16.82100       13.74200
F         13.70200       18.81800       13.17200
F         12.21400       17.71200       12.28100
F          5.47100       17.49700       17.09500
F          4.21500       19.13600       16.70200
F          3.85600       17.29000       15.72100
F          5.57400       16.87200       11.24100
F          5.49700       18.91700       10.60800
F          7.33400       17.85900       10.65600
F          9.63800       24.05500       19.91900
F         10.28000       25.34300       18.39400
F         11.18200       23.39900       18.62800
C         10.00400       19.94400       15.07900
C         10.08800       19.41200       16.37500
H          9.49800       19.73700       17.04500
C         11.00800       18.42200       16.71100
C         11.89900       17.91900       15.76900
H         12.53600       17.25300       15.99900
C         11.82100       18.42800       14.47800
C         10.89400       19.40400       14.14000
H         10.86300       19.71700       13.24400
C         11.07400       17.93900       18.12700
C         12.78600       17.93900       13.43800
C          7.57200       19.97500       14.27800
C          6.71300       19.48300       15.27000
H          6.81100       19.80200       16.16000
C          5.72200       18.54600       14.99900
C          5.54200       18.04300       13.71600
H          4.86200       17.40800       13.52600
C          6.39500       18.50500       12.72300
C          7.38900       19.44400       12.99700
H          7.95900       19.73100       12.29300
C          4.81300       18.10800       16.11200
C          6.18100       18.04300       11.31200
C          8.40300       22.01300       15.86400
C          7.10100       22.51400       15.98200
H          6.42900       22.19900       15.38900
C          6.76200       23.46600       16.94900
C          7.70300       23.95100       17.82900
H          7.46800       24.58700       18.49500
C          9.00500       23.48300       17.71700
C          9.34900       22.53800       16.75400
H         10.25000       22.24100       16.69800
C          5.35600       23.99200       17.01300
C         10.04100       24.05500       18.64000
C          9.24700       21.95900       13.41000
C          8.29800       22.50200       12.52500
H          7.38900       22.23800       12.60600
C          8.65200       23.41500       11.53600
C          9.97000       23.83500       11.38500
H         10.21300       24.45200       10.70500
C         10.91600       23.32700       12.25400
C         10.56500       22.41100       13.24600
H         11.24000       22.08400       13.82900
C          7.62300       23.98200       10.60600
C         12.32400       23.84000       12.17800
B          8.81100       20.97900       14.65200
F          5.03100       24.41200       18.22000
F          5.20700       25.01100       16.20600
F          4.45100       23.12300       16.69900
F          6.39800       23.62000       10.86700
F          7.59300       25.35300       10.68700
F          7.89600       23.76500        9.32200
F         12.58100       24.44500       11.06200
F         12.60200       24.64300       13.16600
F         13.19600       22.84000       12.29200
F          5.22500       25.15600       17.51500
F          4.76500       24.05500       15.81900
F          4.54300       23.17900       17.63100
F          6.68000       23.04200       10.34600
F          7.03300       25.01900       11.01400
F          8.10900       24.24600        9.42900
F         12.44300       24.99900       12.81300
F         13.23400       23.07000       12.70300
F         12.73700       24.09900       10.95600
