82
C:\Users\Javier\OneDrive - Universitat de Barcelona\Tesi\4 - Contribucions\Treballs\3-PhD\chapter_1\cif\pc3p\MOQNUD.pc3p.pdb
Ir        12.07600        5.33300        1.20900
Pd        13.64900        6.19900        3.99800
Cl        11.06000        4.21800        3.10500
S         14.29100        4.94100        2.13600
S         12.29300        7.36500        2.49900
P         14.67300        4.69800        5.32800
P         12.52200        7.16600        5.67600
C         10.94600        4.19300       -0.29000
C         10.46700        5.54000       -0.22800
C         11.53200        6.41400       -0.60000
C         12.68600        5.54000       -0.80800
C         12.29900        4.18000       -0.61000
C         10.10900        2.98000        0.05500
C          9.04700        5.97400        0.00000
C         11.46500        7.89400       -0.72600
C         14.00800        6.08200       -1.33900
C         13.15000        2.98900       -0.84000
C         14.40900        3.31000        2.95700
C         15.30000        3.39400        4.19100
C         13.42900        3.94300        6.41300
C         12.71900        4.94200        7.33900
C         11.70300        5.87500        6.64800
C         11.22600        8.21600        4.91100
C         10.83100        7.62300        3.55800
C         16.05400        5.25800        6.35600
C         16.13700        4.95900        7.73100
C         17.14900        5.50900        8.49100
C         18.05000        6.38700        7.92800
C         18.00700        6.63200        6.55200
C         17.01300        6.08500        5.79900
C         13.38900        8.19500        6.87300
C         12.74100        8.71000        8.00400
C         13.43900        9.50600        8.90300
C         14.79500        9.72900        8.71900
C         15.44800        9.25000        7.59800
C         14.75200        8.47300        6.67600
H         10.47100        2.55100        0.85900
H         10.13000        2.34500       -0.69100
H          9.18300        3.25600        0.22000
H          8.69500        6.37900       -0.81800
H          9.01900        6.62900        0.72900
H          8.50300        5.19500        0.24000
H         11.21200        8.28300        0.13600
H         10.79700        8.13400       -1.40300
H         12.34200        8.23800       -0.99700
H         14.15900        5.74300       -2.24500
H         14.73800        5.79100       -0.75500
H         13.97500        7.06100       -1.35800
H         12.79200        2.47000       -1.59200
H         13.15800        2.43100       -0.03400
H         14.06400        3.27400       -1.04700
H         13.50600        3.00700        3.22200
H         14.78400        2.64800        2.32400
H         16.22900        3.60800        3.91900
H         15.30800        2.52100        4.65600
H         12.75000        3.49100        5.85300
H         13.86900        3.25300        6.96900
H         13.40400        5.50000        7.78300
H         12.24600        4.43300        8.04400
H         11.12900        6.29700        7.33400
H         11.12100        5.33900        6.05200
H         10.43500        8.25800        5.50400
H         11.56900        9.13700        4.78700
H         10.19900        8.23400        3.10300
H         10.37100        6.75800        3.70100
H         15.50000        4.38100        8.13100
H         17.22700        5.28000        9.41000
H         18.69400        6.82400        8.47200
H         18.66900        7.18000        6.14600
H         16.97900        6.27500        4.86900
H         11.82300        8.51400        8.15600
H         12.98900        9.89700        9.64300
H         15.28100       10.21700        9.37300
H         16.36700        9.45100        7.45700
H         15.19900        8.12900        5.91200
P          8.22000        8.07500        8.25900
F          7.24500        7.01600        8.87100
F          9.42700        7.31100        8.92500
F          8.03900        8.95700        9.56700
F          7.03000        8.81600        7.56900
F          8.41700        7.16300        6.96000
F          9.25500        9.11000        7.64400
