166
C:\Users\Javier\OneDrive - Universitat de Barcelona\Tesi\4 - Contribucions\Treballs\3-PhD\chapter_1\cif\pc3p\MURLUG.pc3p.pdb
Pd         6.06300       33.04500        4.35200
P          7.16800       33.33800        6.30700
P          4.08800       33.44300        5.40300
C          6.38600       32.53100        7.72700
H          6.34600       31.55700        7.55600
H          6.95800       32.66900        8.52500
C          4.97400       33.03000        8.04400
H          4.70000       32.68000        8.92800
H          4.98900       34.02000        8.10200
C          3.95500       32.61800        7.01900
H          3.05300       32.79400        7.38700
H          4.03100       31.63900        6.87900
C          8.84400       32.65700        6.20300
C          9.82600       33.39100        5.56100
H          9.62900       34.26700        5.24400
C         11.10000       32.86500        5.38000
H         11.77200       33.37200        4.94100
C         11.37300       31.61200        5.83600
H         12.23700       31.24300        5.70700
C         10.42600       30.88900        6.47200
H         10.64700       30.03300        6.81500
C          9.13200       31.37600        6.63500
H          8.46000       30.83800        7.03700
C          7.44600       35.05700        6.77900
C          7.85900       35.39100        8.06400
H          7.95400       34.71100        8.72400
C          8.12700       36.70700        8.38200
H          8.43400       36.92300        9.25400
C          7.96200       37.69700        7.47200
H          8.13100       38.60000        7.71100
C          7.55400       37.38300        6.21100
H          7.43200       38.07400        5.57000
C          7.31200       36.06300        5.85600
H          7.05300       35.85100        4.96600
C          2.74100       32.77900        4.39400
C          2.15000       33.57200        3.38800
H          2.36500       34.49500        3.31200
C          1.26100       32.98700        2.52300
H          0.88700       33.50100        1.81900
C          0.90000       31.66300        2.65700
H          0.26100       31.29000        2.06100
C          1.43900       30.88900        3.62300
H          1.18300       29.97800        3.70600
C          2.38500       31.44700        4.50900
H          2.77900       30.90500        5.18400
C          3.72200       35.19100        5.68000
C          2.92900       35.61900        6.72700
H          2.54600       34.99000        7.32600
C          2.69200       36.99000        6.90400
H          2.16200       37.28100        7.63600
C          3.21400       37.91300        6.03700
H          3.04300       38.84000        6.16000
C          3.98400       37.48900        4.99200
H          4.34800       38.12100        4.38300
C          4.23700       36.13700        4.82000
H          4.78000       35.85500        4.09200
N          5.14600       32.67700        2.48200
C          4.74200       31.41500        2.22700
H          4.80800       30.75900        2.90800
C          4.23000       31.07000        0.98900
C          4.18100       32.02000       -0.01000
H          3.83900       31.80400       -0.86800
C          4.64100       33.29300        0.26200
C          5.12300       33.58000        1.49700
H          5.45700       34.45200        1.66900
C          3.73600       29.68700        0.69000
O          3.12800       29.41000       -0.30300
O          4.02900       28.84800        1.66600
H          3.79200       28.07200        1.44800
C          4.62300       34.30700       -0.84400
O          4.04300       34.16300       -1.87000
O          5.32600       35.39500       -0.56000
H          6.12000       35.17900       -0.39000
N          7.83100       32.53300        3.29900
C          8.29400       31.26600        3.38800
H          7.85700       30.65700        3.97000
C          9.37600       30.83400        2.66600
C          9.97400       31.71400        1.82200
H         10.72800       31.43100        1.32000
C          9.51500       33.01000        1.67400
C          8.42500       33.36400        2.46200
H          8.09100       34.25200        2.39400
C          9.88300       29.43900        2.80000
O         10.97500       29.10700        2.40400
O          9.04400       28.63500        3.40400
H          8.27400       28.96800        3.38700
C         10.14000       33.93700        0.69400
O         11.16000       33.68300        0.09300
O          9.44300       35.05900        0.55500
H          9.82000       35.55200       -0.01000
C          5.47600       27.58100        5.19900
F          4.23700       27.60100        4.55600
F          6.20700       27.36900        4.22100
F          5.38200       26.53600        6.00300
S          5.57900       29.13400        5.99600
O          6.87400       28.94100        6.66300
O          4.58600       29.18800        6.87700
O          5.72000       30.13200        5.00200
C         11.98400       37.85800       10.11800
F         11.92200       37.92900        8.78000
F         11.57000       39.02100       10.57300
F         11.17300       36.92700       10.52300
S         13.72400       37.55400       10.59600
O         13.65400       37.46000       12.02800
O         14.03600       36.30800        9.94100
O         14.42400       38.70600       10.11100
C         10.62100       25.86500        4.68000
O          9.87800       26.12300        3.72700
C         11.08900       26.91700        5.58100
H         11.81900       27.41200        5.15300
H         11.41100       26.51300        6.41400
H         10.35000       27.53000        5.77800
C         11.07500       24.46600        4.89100
H         10.55000       23.86500        4.32300
H         10.94900       24.22300        5.83200
H         12.02300       24.39100        4.65700
C          6.66700       37.23300        1.77600
O          6.72500       36.26200        2.53100
C          7.79400       37.79100        1.06200
H          8.62300       37.55900        1.53000
H          7.70400       38.76500        1.02000
H          7.81700       37.42600        0.15300
C          5.34600       37.88500        1.50600
H          4.62300       37.30000        1.81600
H          5.25000       38.04300        0.54300
H          5.30000       38.74200        1.98000
C          1.96100       26.09600        1.83400
O          3.04300       26.38400        1.31900
C          1.38100       24.76900        1.62500
H          1.83100       24.33300        0.87100
H          0.42500       24.85900        1.42800
H          1.50000       24.23000        2.43400
C          1.27300       27.06700        2.70600
H          1.86800       27.82500        2.88300
H          1.03500       26.63100        3.55100
H          0.46100       27.38500        2.26100
C          9.05800       41.21300        9.79800
O          8.54000       40.09700       10.04600
C          9.54100       42.19500       10.72300
H          8.82500       42.44200       11.34800
H          9.83600       42.99200       10.23400
H         10.29800       41.82600       11.22900
C          9.44000       41.53500        8.43500
H          9.34100       40.73800        7.87200
H         10.36900       41.83400        8.41800
H          8.85800       42.24600        8.09500
C          9.53700       36.42000       -2.63300
O         10.03200       36.67900       -1.49600
C          8.81300       35.17500       -2.87400
H          9.39500       34.54200       -3.34700
H          8.01900       35.35600       -3.41900
H          8.53800       34.78600       -2.01700
C          9.56900       37.43800       -3.70300
H          8.88800       38.11700       -3.52600
H          9.38700       37.00900       -4.56500
H         10.45400       37.85800       -3.72700
C          1.49200       37.11200        0.56500
O          2.06100       36.09800        0.92900
C          1.92000       37.92500       -0.52400
H          2.67800       37.50100       -0.97000
H          2.19200       38.80500       -0.18300
H          1.18200       38.03500       -1.15700
C          0.26700       37.47700        1.30300
H          0.10000       38.43900        1.20100
H          0.37100       37.25700        2.24500
H         -0.49500       36.97800        0.92800
