116
C:\Users\Javier\OneDrive - Universitat de Barcelona\Tesi\4 - Contribucions\Treballs\3-PhD\chapter_1\cif\pc3p\MURLIU.pc3p.pdb
Pd        11.11600        3.38300        3.97700
P         11.52000        1.17700        4.39000
P          8.87300        3.04900        4.14200
C         10.33000        0.02900        3.65100
H         10.36100        0.12300        2.66500
H         10.59500       -0.89700        3.87600
C          8.90300        0.25700        4.12000
H          8.89900        0.37600        5.10200
H          8.36000       -0.54200        3.90900
C          8.26900        1.48200        3.46800
H          7.28600        1.43700        3.59100
H          8.45100        1.45800        2.49600
C         11.63300        0.75000        6.13800
C         11.48700       -0.56900        6.55300
H         11.23700       -1.23800        5.92700
C         11.70500       -0.90700        7.88300
H         11.60400       -1.80900        8.16500
C         12.06800        0.07300        8.79900
H         12.21700       -0.15800        9.70800
C         12.21500        1.39200        8.38400
H         12.46200        2.06100        9.01100
C         11.99700        1.73000        7.05400
H         12.09800        2.63100        6.77000
C         13.13000        0.66900        3.71600
C         14.26600        0.73600        4.51400
H         14.19800        1.03200        5.41300
C         15.50300        0.37000        3.99500
H         16.27900        0.41700        4.54100
C         15.60300       -0.06200        2.67800
H         16.44800       -0.31200        2.32400
C         14.46700       -0.13000        1.88000
H         14.53500       -0.42500        0.97900
C         13.23100        0.23500        2.39900
H         12.45400        0.18900        1.85500
C          8.27800        3.12600        5.84400
C          7.01300        2.65300        6.17400
H          6.43900        2.32000        5.49700
C          6.59000        2.66800        7.49800
H          5.72600        2.34400        7.72500
C          7.43000        3.15500        8.49100
H          7.14100        3.16600        9.39600
C          8.69500        3.63000        8.16100
H          9.26900        3.96300        8.84100
C          9.11900        3.61500        6.83700
H          9.98300        3.93700        6.61300
C          7.94000        4.28800        3.20200
C          8.02000        4.26600        1.81500
H          8.51200        3.58100        1.37700
C          7.38000        5.24600        1.06600
H          7.43400        5.23200        0.11900
C          6.65900        6.24900        1.70400
H          6.22100        6.91900        1.19300
C          6.57800        6.27100        3.09200
H          6.08600        6.95500        3.52900
C          7.21900        5.29000        3.84100
H          7.16500        5.30600        4.79000
N         10.83500        5.41900        3.55300
C         10.71200        5.85800        2.28100
H         10.76000        5.22500        1.57600
C         10.52600        7.16600        1.96700
H         10.44300        7.43500        1.06000
C         10.45500        8.09900        2.97600
C         10.61500        7.67200        4.29200
H         10.59900        8.29800        5.00700
C         10.79200        6.33400        4.53800
H         10.88900        6.04500        5.43700
C         10.22300        9.55100        2.64200
O         10.10800        9.95600        1.54400
O         10.14000       10.29700        3.71000
H          9.95300       11.08400        3.48700
N         13.15400        3.84800        3.75400
C         13.73100        3.68500        2.55200
H         13.25300        3.22600        1.87300
C         14.98500        4.16200        2.27400
H         15.36800        4.02800        1.41600
C         15.68500        4.83600        3.24900
C         15.09800        5.00200        4.48900
H         15.56000        5.46200        5.17900
C         13.83400        4.49400        4.71400
H         13.43300        4.60600        5.56800
C         17.04600        5.40700        3.03600
O         17.71900        5.83000        3.93100
O         17.40300        5.39100        1.75600
H         18.17000        5.72400        1.67400
F         22.19900        8.17500        0.88200
F         22.38000        6.54900        2.26600
F         23.34100        6.45800        0.34900
C         22.24100        6.88300        0.96700
S         20.76400        6.07800        0.27200
O         19.67900        6.68100        0.99700
O         20.94700        4.70000        0.55400
O         20.82500        6.38900       -1.11100
F         14.38100        6.73600        7.49700
F         12.46400        7.79200        7.75500
F         13.83000        7.49700        9.41300
C         13.44300        6.88300        8.35500
S         12.45700        5.47100        8.60200
O         11.49500        5.77200        9.57700
O         12.06400        5.01100        7.35600
O         13.62200        4.63300        9.18000
Cl         5.35900        9.77800        3.42100
C          5.59700       11.35500        2.89400
H          4.70500       11.78400        2.84900
H          6.10400       11.82400        3.60300
C          6.23900       11.62600        1.68900
H          7.10300       11.14400        1.64100
H          6.41300       12.59700        1.60000
Cl         5.29800       11.14400        0.56100
C          6.23900       11.18000        2.86400
H          5.61300       11.82500        2.44900
H          6.67700       11.62600        3.63300
C          7.23200       10.76900        1.90500
H          7.70000        9.97300        2.25000
H          7.90200       11.49800        1.81300
Cl         6.63000       10.43800        0.45200
O          9.37100       12.67900        3.29100
