96
C:\Users\Javier\OneDrive - Universitat de Barcelona\Tesi\4 - Contribucions\Treballs\3-PhD\chapter_1\cif\pc3p\NOWVOM.pc3p.pdb
C          0.21900        2.02900        2.92600
H         -0.34700        1.46100        3.48800
H         -0.24300        2.21600        2.08100
H          0.40200        2.87200        3.39000
C          1.52900        1.31500        2.63900
C          2.48000        2.13300        1.78300
H          1.99700        2.47300        0.98800
H          2.80100        2.91300        2.30200
C          3.66200        1.30200        1.33800
C          4.59300        2.04100        0.42600
H          4.96600        2.81500        0.89700
H          4.10300        2.34300       -0.36600
H          5.32200        1.44500        0.15100
C          1.72400       -1.70200        0.52500
H          1.25900       -1.26400       -0.21800
H          1.08600       -2.24100        1.03800
H          2.43000       -2.28300        0.17000
C          2.33900       -0.65400        1.42600
C          3.22400       -1.20800        2.53100
H          3.94700       -1.75400        2.13200
H          2.68700       -1.79200        3.12200
C          3.83700       -0.07000        3.35500
C          4.88100       -0.54200        4.32200
H          5.12900        0.19400        4.91900
H          5.67200       -0.84300        3.82800
H          4.52300       -1.28700        4.85200
C          1.39700       -0.38100        5.03300
H          0.47100       -0.03400        5.10100
H          1.37100       -1.20800        4.49100
C          1.91700       -0.70800        6.43300
H          1.60300       -1.60800        6.69900
H          2.90600       -0.71900        6.42400
C          1.43100        0.31400        7.43600
H          1.76100        0.04500        8.33100
H          0.44300        0.27000        7.46200
C          4.42200        1.70300        8.33800
H          4.24000        0.74200        8.27300
H          5.01400        1.87400        9.09900
H          4.85200        2.01000        7.51300
C          3.11900        2.45000        8.53600
C          3.28700        3.96500        8.61500
H          3.99700        4.18500        9.26900
H          3.56400        4.31400        7.73000
C          1.98000        4.62600        9.03800
C          2.07100        6.11500        9.21400
H          2.28700        6.53300        8.35500
H          2.77200        6.32400        9.86700
H          1.21200        6.45800        9.53700
C          1.11900        2.17400       11.62700
H          1.91400        2.33300       12.17600
H          0.92600        1.21200       11.60400
H          0.35500        2.65100       12.01000
C          1.37000        2.67000       10.22400
C          0.20300        2.44800        9.27800
H         -0.61000        2.87300        9.65100
H          0.03000        1.47800        9.19000
C          0.50300        3.04400        7.89300
C         -0.70600        3.07100        6.97600
H         -0.47700        3.54000        6.14600
H         -1.44500        3.53700        7.42200
H         -0.97800        2.15200        6.76600
C          7.09100        2.93300        3.78600
C          2.70400        6.47000        3.59200
F          7.03800        2.91300        2.46000
F          7.07400        1.68900        4.22500
F          8.25100        3.47900        4.14200
F          3.09400        5.53500        2.74200
F          1.80800        7.24600        2.96700
F          3.73900        7.21600        3.91700
O          1.22200        0.07700        1.97000
O          3.14200        0.18300        0.60800
O          4.46400        0.85000        2.44700
O          0.93900        4.40600        8.06400
O          1.60700        4.06600       10.30300
O          2.53600        1.96600        9.76300
O          4.52800        3.27500        3.92300
O          5.84400        3.74800        5.90600
O          5.96500        5.23700        3.97500
O          2.95400        4.89000        5.67000
O          1.62500        6.91000        5.88600
O          0.79300        5.02900        4.56300
P          2.43300        0.84400        4.20300
P          1.91100        2.05800        7.16000
S          5.72200        3.92500        4.49400
S          1.90800        5.75500        5.08900
Pd         2.93900        2.73800        5.27800
C          6.94900        6.12100        1.01900
H          6.35400        5.77900        1.73000
H          6.85900        7.11300        0.99300
Cl         8.71200        5.66400        1.38800
Cl         6.51400        5.47500       -0.45900
C          6.90700        6.36900        1.06500
H          6.92900        7.34500        0.91600
H          6.60600        6.20700        1.99300
Cl         8.40500        5.77000        0.88300
Cl         5.69200        5.60200       -0.10500
