71
C:\Users\Javier\OneDrive - Universitat de Barcelona\Tesi\4 - Contribucions\Treballs\3-PhD\chapter_1\cif\pc3p\NUXLID.pc3p.pdb
C         17.05800       -3.06900       16.57900
H         16.86800       -2.54700       17.38700
H         17.95600       -3.45500       16.64400
H         16.39600       -3.78800       16.49200
C         18.08200       -1.09500       15.38000
H         18.03900       -0.56300       14.55900
H         18.95700       -1.53100       15.44300
H         17.95100       -0.50800       16.15600
C         16.98300       -2.16000       15.35600
H         17.17000       -2.73900       14.56200
C         15.49300       -1.89300       12.33100
H         15.58200       -1.50400       11.43500
H         14.69700       -2.46200       12.36200
H         16.28800       -2.43100       12.53300
C         14.14000        0.10200       13.06000
H         13.32200       -0.42400       13.18400
H         14.18600        0.41900       12.13500
H         14.12800        0.87100       13.66900
C         15.36100       -0.77000       13.36400
H         16.17300       -0.19100       13.28400
C         14.17600       -2.84500       14.99200
H         13.43500       -2.60800       14.37700
H         14.66600       -3.60500       14.58600
C         13.56500       -3.31900       16.30500
H         14.28400       -3.43300       16.97600
H         13.13900       -4.20200       16.16600
C         12.52800       -2.34100       16.84500
H         12.03500       -2.78900       17.57700
H         11.87700       -2.15400       16.12300
C         14.84500       -1.76600       19.44800
H         14.97500       -1.97400       20.39600
H         15.56800       -1.18400       19.13900
H         14.84800       -2.59700       18.92900
C         13.42300        0.19200       20.14400
H         12.57800        0.65700       19.97500
H         14.16900        0.79000       19.93500
H         13.46800       -0.07200       21.08700
C         13.50500       -1.05400       19.26000
H         12.79900       -1.68300       19.58800
C         10.46000       -0.27100       18.01100
H         10.20800       -1.06900       17.50300
H          9.72000        0.37000       18.00200
H         10.66300       -0.52300       18.93600
C         11.42100        0.79200       15.92800
H         12.20000        1.26600       15.57000
H         10.63900        1.38200       15.90400
H         11.24500       -0.00400       15.38400
C         11.69900        0.37100       17.37400
H         11.91500        1.19700       17.89400
C         14.19700        4.09100       19.09200
F         13.23300        3.56800       19.82800
F         14.01600        5.40100       19.03400
F         15.35100        3.85000       19.69700
O         16.36500        1.58100       15.64700
H         16.58500        1.61800       14.91400
H         16.23700        2.34300       15.83300
O         14.41500        1.95800       17.73100
O         12.88400        3.65800       16.90000
O         15.29300        3.98700       16.73700
P         15.31400       -1.42500       15.08400
P         13.15000       -0.74800       17.47300
S         14.18000        3.37800       17.41100
Pd        14.84300        0.29600       16.44400
C         17.79800        4.42400       13.34000
F         17.64400        4.36900       14.66800
F         17.40900        5.63000       12.93800
F         19.09300        4.30100       13.07500
O         15.47200        3.40300       12.87600
O         17.36100        1.90400       13.14800
O         17.16300        3.24600       11.13500
S         16.83000        3.10800       12.52400
