184
C:\Users\Javier\OneDrive - Universitat de Barcelona\Tesi\4 - Contribucions\Treballs\3-PhD\chapter_1\cif\pc3p\PABPIV.pc3p.pdb
Ru         1.21600        5.75900       12.67200
Cl         1.12100        5.99800       10.24100
Cl         3.40400        6.91200       12.70500
P          2.19600        3.71800       12.41900
P         -0.82900        4.84100       12.51000
O         -0.46300       11.63900       13.99500
N          0.43500        7.72400       13.01700
N          1.46700        5.96800       14.76500
H          1.12200        5.23100       15.17100
H          2.35800        5.99000       14.94700
C         -2.98400        3.46400       13.67300
H         -3.49100        3.79500       12.94000
C          3.23900        3.33800       14.96000
H          3.65200        4.17900       14.81200
C          2.44400        2.76600       13.95400
C          0.07300        8.58900       12.05200
H          0.04400        8.27300       11.15600
C         -3.57100        2.58700       14.57300
H         -4.47600        2.32200       14.45200
C         -2.13000        6.07200       12.12100
C          4.21800        4.42300       10.62600
H          3.60500        5.08600       10.33200
C          1.34400        2.54800       11.27200
H          1.50700        2.85400       10.34500
H          1.77100        1.66000       11.36800
C         -2.54900        6.31700       10.81200
H         -2.21200        5.78900       10.09800
C         -0.16100        2.37100       11.45300
H         -0.46700        1.64500       10.85200
H         -0.33500        2.07900       12.38300
C         -1.65200        3.86700       13.83000
C          4.80600        2.63200       12.10700
H          4.59600        2.06900       12.84100
C          0.49100        8.17100       14.29400
C         -0.17700       10.35600       13.59200
C         -0.98900       12.51200       12.98900
H         -1.75200       12.08200       12.55000
H         -0.29400       12.70200       12.32600
H         -1.28200       13.35000       13.40500
C         -3.45300        7.32800       10.55500
H         -3.75700        7.46500        9.66600
C          5.46300        4.27700        9.99300
H          5.68600        4.84800        9.26700
C         -0.25500        9.90000       12.28600
H         -0.52700       10.47400       11.57900
C          3.89400        3.59000       11.68100
C         -1.53400        2.47300       15.81700
H         -1.03800        2.14100       16.55600
C         -3.91300        8.12900       11.55100
H         -4.51800        8.83200       11.34400
C          0.82700        7.18700       15.37100
H          1.50300        7.61600       15.97000
C         -0.99300        3.61200       11.17200
H         -1.94300        3.35600       11.07700
H         -0.69800        4.01700       10.31800
C          0.16800        5.97200       17.47700
H          0.74500        5.23900       17.17500
H         -0.58700        5.60500       17.98400
H          0.68300        6.57800       18.04900
C         -0.93900        3.33900       14.90500
H         -0.02600        3.57500       15.01600
C         -2.85400        2.09600       15.63800
H         -3.26500        1.49900       16.25200
C         -1.24000        7.88900       16.74000
H         -0.68700        8.54100       17.22100
H         -1.92800        7.53800       17.34300
H         -1.66600        8.32400       15.97300
C         -2.63800        6.87700       13.14400
H         -2.38300        6.70300       14.04300
C          6.36900        3.32200       10.40400
H          7.21000        3.23300        9.97100
C         -0.36400        6.74700       16.25300
H         -0.93500        6.12500       15.71500
C         -3.51000        7.93400       12.87500
H         -3.82200        8.50100       13.57000
C          2.84100        1.44100       16.38800
H          2.97500        0.99700       17.21800
C          6.02900        2.49900       11.45500
H          6.64000        1.83000       11.74100
C          0.23200        9.48200       14.59100
H          0.33400        9.79500       15.48300
C          2.06900        0.85600       15.40800
H          1.66300        0.01200       15.56600
C          3.42300        2.68600       16.16000
H          3.95200        3.09000       16.83800
C          1.88400        1.49900       14.18800
H          1.37500        1.07600       13.50600
Ru         8.51300        0.97000        2.83100
Cl         8.46600        0.73300        0.39500
Cl        10.65100       -0.24800        2.90200
P          6.47700        1.91800        2.64000
P          9.53000        2.99400        2.60700
O          6.82900       -4.84200        4.26400
N          8.61300        0.75500        4.93000
H          9.42600        0.41700        5.16100
H          8.52500        1.57100        5.32200
N          7.67100       -0.95800        3.15900
C          9.24700        5.18300        4.43100
H          8.73100        5.62600        3.76900
C          4.61600       -0.07700        3.23000
H          4.83000        0.09500        4.13900
C          6.36400        3.16900        1.30700
H          6.68000        2.77500        0.45700
H          5.41800        3.43900        1.18700
C          7.30000       -2.64400        4.82400
H          7.27600       -2.88900        5.74100
C          6.37300        3.38100        5.05100
H          7.26900        3.09500        5.18700
C          7.20100       -3.22600        2.50700
H          7.04800       -3.85100        1.80900
C          5.64600        2.91600        3.95500
C         13.35300        4.26600        1.67000
H         13.95200        4.94400        1.95900
C          3.76100       -1.10900        2.91000
H          3.40200       -1.64200        3.61000
C         11.22400        3.09600        1.88800
C          7.11200       -3.60800        3.82900
C          8.72300        4.19400        1.47900
H          9.17200        5.07000        1.59400
H          8.88900        3.89900        0.55000
C         10.74500        3.93600        6.38600
H         11.26800        3.51000        7.05600
C         13.69400        3.44000        0.64600
H         14.52900        3.55700        0.20600
C          9.46400        5.79800        5.64300
H          9.09900        6.65900        5.80700
C          7.21300        4.40900        1.64600
H          6.93200        5.15800        1.06300
H          7.03100        4.67400        2.58300
C          7.52100       -1.33400        4.45400
C          5.77400        4.27100        5.95300
H          6.26700        4.59200        6.70000
C          7.82700        0.82600        7.72600
H          7.11200        1.46700        7.52900
H          8.69100        1.21300        7.46900
H          7.83100        0.62400        8.68300
C         12.83500        2.42000        0.23600
H         13.09200        1.83600       -0.46900
C          3.41400       -1.39300        1.61900
H          2.84400       -2.12600        1.42100
C          4.48100        4.68400        5.76500
H          4.08300        5.28900        6.38000
C         10.20200        5.17500        6.61700
H         10.33800        5.60300        7.45400
C         12.10600        4.11100        2.29500
H         11.85600        4.69700        3.00000
C          6.45100       -5.81700        3.28100
H          6.16600       -6.64000        3.73200
H          7.21600       -6.00900        2.70100
H          5.71100       -5.46800        2.74200
C         11.61400        2.26000        0.85100
H         11.02900        1.57000        0.56100
C          4.80200        0.46000        0.91400
H          5.15500        0.99600        0.21400
C          3.90700       -0.58900        0.60500
H          3.64600       -0.74300       -0.29500
C          5.16900        0.71900        2.21800
C          7.59000       -0.46000        6.93200
H          8.34000       -1.09700        7.11200
C          9.77200        3.92800        4.16100
C          7.52100       -1.89300        2.22400
H          7.63700       -1.64300        1.31600
C         10.52600        3.30700        5.16500
H         10.89100        2.44500        5.00900
C          4.33600        3.33200        3.79000
H          3.83300        3.00300        3.05500
C          6.26600       -1.09000        7.41700
H          6.26200       -1.13200        8.39600
H          6.18300       -1.99700        7.05200
H          5.51200       -0.54500        7.11000
C          3.74500        4.22200        4.67400
H          2.85000        4.51200        4.53900
C          7.54500       -0.14900        5.42500
H          6.68600        0.34000        5.27600
Cl         2.83900        3.53700       -0.00300
Cl         2.31700        5.85500        1.65100
C          3.15800        5.27000        0.21200
H          4.13200        5.42100        0.31200
H          2.84700        5.77000       -0.58300
Cl         4.43000        9.78200        9.77700
Cl         4.93900        7.48400        8.09200
C          4.02100        8.09400        9.49200
H          3.05000        8.01000        9.31800
H          4.23900        7.55700       10.29400
