200
C:\Users\Javier\OneDrive - Universitat de Barcelona\Tesi\4 - Contribucions\Treballs\3-PhD\chapter_1\cif\pc3p\PEBNAO01.pc3p.pdb
Rh         0.56300       15.81400       25.25000
Ga        -0.40400       13.71100       24.18200
N         -2.13700       13.34900       23.64700
N          0.48500       12.16400       23.69100
C         -3.89900       12.03000       22.52900
C         -2.46400       12.19900       23.01200
C         -1.49700       11.31300       22.52500
C         -0.15700       11.22100       22.89300
C          0.64400       10.01100       22.41700
C         -3.17300       14.03800       24.27200
C         -3.74300       13.57400       25.47400
C         -4.81700       14.26900       26.14100
C         -5.26700       15.43100       25.53500
C         -4.76800       15.96200       24.35300
C         -3.69500       15.22900       23.72900
C         -3.25800       12.26100       26.11800
C         -3.15300       15.70900       22.37000
C          1.81600       12.04400       24.08400
C          2.87200       12.42200       23.23000
C          4.25800       12.30900       23.61500
C          4.50600       11.80500       24.88000
C          3.53500       11.41000       25.78700
C          2.16300       11.54300       25.35300
C          2.62200       12.82900       21.76600
C          0.98400       11.13100       26.25400
C         -2.63300       12.48800       27.49100
C         -4.37500       11.26400       26.40500
C         -2.49100       17.07900       22.47300
C         -4.26500       15.85100       21.33600
C          2.90400       14.32500       21.65100
C          3.51300       12.12400       20.74500
C          1.17000       11.58800       27.69900
C          0.86100        9.61100       26.23400
P          0.62700       16.41200       27.38000
P          1.77000       17.52900       24.54200
C          0.49900       18.25800       27.52700
C          1.54000       19.16900       26.85200
C          1.38400       19.07900       25.43100
C         -0.79900       15.93900       28.39000
C         -0.60000       15.15100       29.50800
C         -1.70700       14.78900       30.28500
C         -2.95600       15.22300       29.91900
C         -3.15600       16.00500       28.81100
C         -2.05900       16.37400       28.02500
C          2.11600       15.96200       28.30500
C          2.85300       14.86500       27.90100
C          4.00500       14.52300       28.62000
C          4.36900       15.28000       29.70400
C          3.64000       16.36900       30.10700
C          2.48800       16.72300       29.39700
C          1.67500       17.96600       22.78700
C          0.56200       18.63800       22.31900
C          0.49500       18.97100       20.96100
C          1.53200       18.62500       20.13300
C          2.63600       17.95800       20.59300
C          2.71800       17.61800       21.94800
C          3.52000       17.19900       24.87200
C          4.36900       18.25800       25.12800
C          5.72100       17.99500       25.38200
C          6.16600       16.69900       25.37000
C          5.32500       15.64500       25.11700
C          3.97300       15.89300       24.86100
H         -4.05200       11.09000       22.04200
H         -4.60300       12.07400       23.33200
H         -4.18000       12.78600       21.83100
H         -1.92900       10.48400       22.01400
H          1.48600        9.81700       23.04400
H          0.05700        9.11900       22.41000
H          1.02000       10.13900       21.42800
H         -5.24200       13.98200       26.97600
H         -6.12000       15.99800       26.05000
H         -5.15900       16.79100       24.01400
H         -2.55100       11.82100       25.47900
H         -2.44900       15.00900       22.02600
H          5.02000       12.55900       23.05200
H          5.60000       11.70600       25.20400
H          3.81900       11.06600       26.65800
H          1.61700       12.64600       21.53500
H          0.10600       11.55700       25.86600
H         -2.17800       11.60100       27.87800
H         -3.35200       12.80200       28.21300
H         -1.87200       13.23700       27.47100
H         -4.00400       10.34800       26.80800
H         -5.08300       11.64300       27.10800
H         -4.92500       11.01000       25.52300
H         -2.12600       17.42300       21.53100
H         -3.16700       17.82600       22.82900
H         -1.65900       17.07600       23.14400
H         -3.92800       16.33200       20.44200
H         -5.08400       16.42700       21.70300
H         -4.66700       14.90700       21.04000
H          2.71300       14.69600       20.66900
H          2.30300       14.90000       22.32200
H          3.92200       14.56000       21.87500
H          3.37100       12.50300       19.75900
H          4.55000       12.23700       20.97200
H          3.32200       11.07400       20.70100
H          0.33600       11.33300       28.31300
H          1.29100       12.64600       27.77400
H          2.03200       11.14700       28.15400
H          0.03600        9.26400       26.81200
H          1.73200        9.13100       26.62100
H          0.72100        9.23100       25.24400
H          0.53300       18.32700       28.64500
H         -0.52300       18.44800       27.11200
H          1.45200       20.13500       27.40700
H          2.49200       18.83900       27.33900
H          1.84400       19.94400       24.87600
H          0.33500       19.35100       25.15600
H          0.38200       14.80300       29.80600
H         -1.54000       14.16400       31.17000
H         -3.87300       14.91900       30.56900
H         -4.15300       16.35400       28.51300
H         -2.22800       16.99300       27.15100
H          2.57500       14.26000       27.04700
H          4.58400       13.65100       28.29300
H          5.32800       14.98900       30.29700
H          3.92800       16.97800       30.97300
H          1.91900       17.58400       29.72400
H         -0.26100       18.91600       22.96500
H         -0.39100       19.50500       20.59700
H          1.46900       18.90500       19.00300
H          3.46800       17.67700       19.93500
H          3.59500       17.09100       22.30200
H          4.02800       19.28600       25.13900
H          6.38700       18.84200       25.58400
H          7.29300       16.48600       25.58300
H          5.67600       14.60600       25.10600
H          3.31700       15.05400       24.66200
H         -0.27300       14.36500       25.93000
H          0.29000       15.32600       23.53300
B          8.56700        8.24000       25.02000
C          8.43500        9.85300       24.96200
C          8.27200       10.62700       26.13600
C          8.15800       12.03600       26.07400
C          8.20000       12.75000       24.85800
C          8.36200       11.96800       23.69600
C          8.47800       10.55800       23.73400
C          7.99000       12.79100       27.33300
C          8.41400       12.64700       22.38500
C          7.60100        7.49900       23.95100
C          6.35500        8.05300       23.56700
C          5.51900        7.39700       22.63300
C          5.86500        6.16800       22.03500
C          7.10800        5.62600       22.42500
C          7.95900        6.26500       23.35700
C          4.23100        8.02300       22.27300
C          7.53600        4.33900       21.83900
C         10.14000        7.98600       24.73600
C         10.65500        7.91900       23.41900
C         12.03200        7.69700       23.18200
C         12.96600        7.53000       24.22500
C         12.44100        7.59800       25.53200
C         11.06800        7.81900       25.79200
C         12.51100        7.63800       21.78500
C         13.36100        7.43200       26.67600
C          7.89700        7.49600       26.29300
C          8.51000        6.37600       26.90600
C          7.91500        5.73500       28.01700
C          6.69400        6.16000       28.57800
C          6.09200        7.27500       27.95900
C          6.66900        7.93300       26.84600
C          8.60100        4.57000       28.61400
C          4.81000        7.77700       28.49100
F          8.88800       12.49900       28.23700
F          6.83700       12.58100       27.91400
F          8.06700       14.08600       27.17600
F          9.00600       13.81100       22.42500
F          7.23400       12.87900       21.87500
F          9.05700       11.96600       21.47300
F          3.27700        7.78400       23.13600
F          4.29400        9.32600       22.18600
F          3.76200        7.62200       21.12000
F          8.17400        4.47300       20.70500
F          8.34200        3.66000       22.61300
F          6.54200        3.53100       21.58300
F         12.07400        8.62300       21.04600
F         12.14900        6.54900       21.15900
F         13.81200        7.67800       21.68100
F         13.32900        8.43200       27.51500
F         14.61400        7.31900       26.32100
F         13.10800        6.37000       27.39500
F          9.49100        4.89700       29.51500
F          7.78900        3.74200       29.21900
F          9.24500        3.84300       27.73900
F          4.94800        8.77100       29.32700
F          4.00000        8.21700       27.56400
F          4.12800        6.87100       29.14000
H          8.23400       10.15100       27.07500
H          8.12000       13.73000       24.82300
H          8.59800       10.02900       22.83200
H          6.04100        8.96900       23.98000
H          5.27800        5.71800       21.38700
H          8.87600        5.81000       23.60800
H         10.00600        8.03700       22.59700
H         13.92200        7.37600       24.05300
H         10.73500        7.86000       26.79100
H          9.42500        6.01100       26.53200
H          6.28600        5.70800       29.35000
H          6.17200        8.76200       26.42700
