424
C:\Users\Javier\OneDrive - Universitat de Barcelona\Tesi\4 - Contribucions\Treballs\3-PhD\chapter_1\cif\pc3p\PEBNOC01.pc3p.pdb
Rh        12.10300       14.07000       10.90100
Ga        14.44300       14.07200       11.13100
N         15.74900       12.77800       11.65200
N         15.71000       15.51200       10.88900
C         17.98000       11.91400       12.16500
C         17.04200       13.00200       11.74300
C         17.65800       14.24200       11.40000
C         17.03300       15.38400       10.98400
C         17.89900       16.55800       10.67000
C         15.33700       11.39600       11.82900
C         14.85400       10.98300       13.07400
C         14.46900        9.61600       13.19300
C         14.54600        8.74800       12.17000
C         15.01200        9.17000       10.98100
C         15.43100       10.51200       10.75200
C         14.85800       11.92800       14.28400
C         16.09300       10.91700        9.42300
C         15.16300       16.82900       10.58500
C         14.88700       17.16200        9.25600
C         14.34900       18.45700        9.01700
C         14.10100       19.33400       10.00600
C         14.38000       18.99000       11.27700
C         14.92100       17.72400       11.62900
C         15.19800       16.21500        8.08500
C         15.38800       17.42200       13.06500
C         13.44300       12.13600       14.71500
C         15.65600       11.35600       15.40800
C         15.02400       11.19200        8.41400
C         17.02500        9.86900        8.90200
C         13.91800       15.59500        7.63100
C         15.82400       16.91100        6.91900
C         14.21700       17.00300       13.89700
C         16.08100       18.59500       13.67400
P         10.60500       12.44100       10.08300
P         10.46700       15.59200       11.40900
C          8.89900       12.91200        9.75600
C          8.60900       14.41800        9.59300
C          8.77900       15.15600       10.94800
C         11.11400       11.71500        8.51100
C         11.23900       12.77000        7.42300
C         11.84800       12.18700        6.14900
C         11.07900       10.95800        5.68200
C         10.98500        9.89300        6.76600
C         10.35700       10.48800        8.02100
C         10.31700       11.01700       11.16500
C         11.46900       10.03900       11.33400
C         11.02500        8.80000       12.11100
C         10.43400        9.15800       13.47100
C          9.32700       10.20000       13.37600
C          9.79100       11.38700       12.54000
C         10.69300       17.28900       10.63700
C          9.89500       18.40300       11.29100
C         10.09900       19.75500       10.62100
C          9.82000       19.68200        9.12800
C         10.67200       18.61300        8.47300
C         10.46300       17.25500        9.13300
C         10.41300       15.96300       13.22900
C         11.09400       14.91800       14.10300
C         11.25300       15.43600       15.52600
C          9.86200       15.67500       16.09500
C          9.13400       16.72700       15.27700
C          9.04400       16.25300       13.83700
H         18.79100       14.25700       11.48100
H         17.72900       16.95000        9.61800
H         17.70800       17.43200       11.37700
H         19.00600       16.31300       10.75200
H         14.09600        9.30800       14.16400
H         14.23300        7.69800       12.30500
H         15.09000        8.49400       10.14000
H         15.25500       12.80200       13.99900
H         16.61500       11.76300        9.58400
H         14.14100       18.70500        7.98300
H         13.68900       20.33000        9.77600
H         14.19700       19.67800       12.09500
H         15.81500       15.49700        8.41700
H         16.03500       16.64900       13.01700
H         13.35700       12.84500       15.59600
H         12.95100       11.15800       15.02700
H         12.80500       12.56900       13.87900
H         15.73800       12.07300       16.28500
H         16.72000       11.09700       15.09700
H         15.19800       10.39600       15.81300
H         15.45100       11.49800        7.40700
H         14.32300       12.01900        8.74000
H         14.37800       10.27200        8.22200
H         17.51500       10.18000        7.92400
H         17.86600        9.64700        9.62900
H         16.49400        8.88500        8.69700
H         14.07100       14.82100        6.81800
H         13.18900       16.36500        7.21500
H         13.37700       15.07200        8.48700
H         16.16900       16.18000        6.12000
H         16.73400       17.51800        7.22200
H         15.10400       17.63300        6.41100
H         14.51800       16.73500       14.95700
H         13.41900       17.80500       13.96300
H         13.71000       16.07500       13.46400
H         16.39800       18.39700       14.74900
H         17.02300       18.89000       13.10500
H         15.41900       19.51900       13.69900
H          8.27200       12.48000       10.59800
H          8.52100       12.34600        8.84800
H          9.28900       14.87000        8.79800
H          7.52300       14.49700        9.26600
H          8.14300       16.09300       10.95300
H          8.36200       14.50500       11.77500
H         12.15200       11.38000        8.77300
H         11.89800       13.55400        7.87000
H         10.18300       13.06200        7.18400
H         12.89300       11.86700        6.37700
H         11.90700       12.88600        5.27800
H         11.63300       10.49800        4.82400
H         10.04400       11.20900        5.34100
H         11.99000        9.48100        7.04100
H         10.37000        9.03100        6.40900
H         10.35100        9.70800        8.82800
H          9.29100       10.78100        7.84100
H          9.50900       10.43500       10.66400
H         12.29900       10.54700       11.89000
H         11.84400        9.69000       10.33800
H         11.93400        8.16100       12.24000
H         10.24200        8.28100       11.50400
H         11.32700        9.46100       14.06900
H         10.12200        8.21600       13.98800
H          8.90800       10.55800       14.34700
H          8.42100        9.80400       12.85600
H         10.63300       11.83000       13.12500
H          8.98400       12.14900       12.40700
H         11.78300       17.46400       10.82200
H         10.17500       18.51300       12.36900
H          8.80800       18.19500       11.12200
H         11.16400       20.08700       10.72200
H          9.50300       20.59100       11.06300
H          9.97700       20.69900        8.68300
H          8.73700       19.46300        8.95000
H         11.77800       18.77700        8.48000
H         10.43900       18.53900        7.37800
H         11.08800       16.44900        8.68100
H          9.40700       16.90700        8.99200
H         11.03100       16.89600       13.24300
H         12.07800       14.62400       13.66500
H         10.45700       13.99700       14.04900
H         11.82900       16.38900       15.60500
H         11.67400       14.55500       16.06800
H          9.95100       15.98100       17.16500
H          9.20300       14.77200       16.11500
H          9.75400       17.65600       15.35000
H          8.07800       16.80700       15.63600
H          8.52900       17.10500       13.32800
H          8.44100       15.31900       13.77100
H         19.01900       12.32000       12.38700
H         17.62400       11.38100       13.10500
H         18.10400       11.11800       11.36800
H         13.08500       12.80000       10.51900
H         12.98600       15.33000       11.49000
C          3.35200        7.12000       -3.07800
Rh         5.21500        5.12300        0.11300
Ga         2.89000        5.09400        0.39300
N          1.56500        6.42800        0.35300
N          1.67000        3.62200        0.69200
C         -0.72100        7.34800        0.29100
C          0.25200        6.22600        0.45600
C         -0.25900        4.97600        0.77000
C          0.37200        3.75000        0.87400
C         -0.49300        2.55100        1.07900
C          1.93000        7.83400        0.09600
C          2.15100        8.23300       -1.21900
C          2.48400        9.57400       -1.46500
C          2.58400       10.45300       -0.38400
C          2.37000       10.04400        0.93200
C          2.03300        8.70300        1.17800
C          2.01600        7.31000       -2.43900
C          1.76000        8.25600        2.62500
C          2.20600        2.25600        0.51100
C          2.65500        1.56600        1.63100
C          3.15800        0.26500        1.46000
C          3.19200       -0.28000        0.17500
C          2.73900        0.41900       -0.94500
C          2.22900        1.71500       -0.77300
C          2.48700        2.13800        3.05500
C          1.51400        2.36500       -1.95600
C          1.07400        7.82900       -3.47100
C          3.04000        7.95800        3.33100
C          0.99000        9.26200        3.41200
C          2.34600        1.08100        4.10100
C          3.60500        3.05800        3.43500
C          2.61500        2.72700       -2.89300
C          0.50200        1.47900       -2.60400
P          6.93100        6.57500        0.87200
P          6.73900        3.56200       -0.67100
C          8.64100        6.04700        0.64600
C          8.98000        5.22900       -0.58000
C          8.54800        3.80300       -0.51000
C          6.96800        8.23500        0.09700
C          7.07800        8.21800       -1.40900
C          7.29100        9.60200       -1.97800
C          6.19000       10.55500       -1.58100
C          6.00600       10.55500       -0.08100
C          5.84200        9.16100        0.49000
C          6.79300        6.87400        2.66000
C          6.55000        5.61100        3.45500
C          6.25700        5.88000        4.91600
C          7.39900        6.66000        5.52200
C          7.63500        7.93600        4.74700
C          7.91800        7.67800        3.28600
C          6.50600        3.21300       -2.47300
C          7.63000        2.66500       -3.32000
C          7.17100        2.44500       -4.74000
C          6.78300        3.75200       -5.39300
C          5.71100        4.39600       -4.55500
C          6.18700        4.53400       -3.13500
C          6.51100        1.90400        0.24800
C          6.83500        2.11100        1.71200
C          6.65800        0.84200        2.51300
C          7.48100       -0.28200        1.92400
C          7.12600       -0.51600        0.47600
C          7.29600        0.74900       -0.32100
H          3.33400        6.45100       -3.97500
H          3.80800        8.08400       -3.43300
H          4.11600        6.67700       -2.38500
H         -1.78900        7.00000        0.34100
H         -0.62900        8.13700        1.07900
H         -0.62300        7.88000       -0.68700
H         -1.35400        4.86800        0.96400
H         -0.10800        1.86400        1.88100
H         -1.53800        2.80800        1.38400
H         -0.59600        1.91600        0.16300
H          2.65700        9.95300       -2.38500
H          2.84700       11.47800       -0.57100
H          2.46400       10.74300        1.65300
H          1.65800        6.33400       -2.14300
H          1.17900        7.34000        2.62600
H          3.50600       -0.30900        2.21300
H          3.58200       -1.27300        0.04300
H          2.80000       -0.05100       -1.83600
H          1.57800        2.73700        3.09600
H          1.01400        3.27300       -1.66400
H          0.82900        7.07300       -4.26600
H          1.45800        8.72600       -4.02000
H          0.08000        8.14300       -3.05100
H          2.89300        7.61300        4.38800
H          3.72900        8.83900        3.39600
H          3.63700        7.14500        2.84100
H          0.76500        8.92600        4.46000
H          1.51700       10.24300        3.51800
H         -0.01000        9.50500        2.96300
H          2.14300        1.49600        5.12400
H          3.25400        0.43700        4.21200
H          1.49900        0.37300        3.89300
H          3.41100        3.60600        4.39500
H          4.58100        2.53300        3.57500
H          3.78800        3.85700        2.66900
H          2.25800        3.31800       -3.78300
H          3.42600        3.33900       -2.43200
H          3.12900        1.82800       -3.33800
H         -0.05600        1.99800       -3.43300
H          0.93800        0.56200       -3.06400
H         -0.29300        1.12500       -1.89900
H          9.15900        7.06200        0.67700
H          8.89200        5.43400        1.57900
H         10.11600        5.20600       -0.70700
H          8.57000        5.78700       -1.49300
H          9.08500        3.15000       -1.28000
H          8.80500        3.42000        0.54000
H          7.89700        8.71300        0.50100
H          7.92700        7.56200       -1.74800
H          6.18000        7.73300       -1.86300
H          8.30200        9.95700       -1.62800
H          7.37600        9.54000       -3.09400
H          6.35300       11.60000       -1.95800
H          5.23400       10.18400       -2.03500
H          6.94600       10.98300        0.35700
H          5.14400       11.19300        0.25500
H          5.75000        9.17300        1.61000
H          4.86900        8.75200        0.11300
H          5.84900        7.46000        2.81200
H          7.43700        4.94800        3.27000
H          5.73200        5.04900        2.93400
H          5.37700        6.57200        5.00200
H          6.00300        4.96300        5.50800
H          7.19200        6.89800        6.59600
H          8.33500        6.04300        5.51500
H          8.45900        8.54300        5.20800
H          6.71900        8.57900        4.84600
H          8.01400        8.65800        2.75300
H          8.85500        7.06100        3.23800
H          5.58800        2.58400       -2.34200
H          8.48400        3.37900       -3.20000
H          7.96300        1.67400       -2.92400
H          8.08100        2.05000       -5.26400
H          6.36200        1.67500       -4.66600
H          7.77000        4.27300       -5.30500
H          6.42000        3.53400       -6.42900
H          5.43600        5.37900       -5.01600
H          4.71800        3.89600       -4.70200
H          7.01600        5.28500       -3.06200
H          5.35800        4.95500       -2.50700
H          5.41900        1.67500        0.15100
H          7.90400        2.44200        1.76400
H          6.15600        2.88900        2.14300
H          6.97200        1.07200        3.56600
H          5.58600        0.52300        2.58100
H          8.55800       -0.02600        2.09100
H          7.37700       -1.18400        2.57900
H          7.67400       -1.39300        0.04300
H          6.05000       -0.82200        0.40900
H          8.38600        1.00400       -0.33900
H          6.95100        0.48900       -1.35500
H          4.22100        3.94200       -0.46300
H          4.33700        6.35700        0.76100
Al        13.83200        4.32900        5.90800
O         14.53500        5.65700        5.12900
O         13.04500        4.83600        7.36200
O         15.00700        3.29300        6.19200
O         12.73000        3.72500        4.81000
C         14.73500        6.95900        4.79500
C         15.28200        7.61600        6.08800
C         13.44700        7.68500        4.33100
C         15.81200        6.97200        3.68300
C         12.43000        4.79300        8.46900
C         12.05300        3.31200        8.73500
C         12.89000        5.98600        9.34300
C         11.01100        5.41300        8.39400
C         16.12800        2.57500        6.22200
C         16.89200        3.05300        4.96100
C         15.86500        1.05600        6.05000
C         16.85400        2.78300        7.57700
C         11.97400        3.13200        3.94300
C         12.69500        3.37900        2.59300
C         11.85400        1.60000        4.13500
C         10.57900        3.78700        4.13500
F         16.06200        6.75900        6.75900
F         16.00500        8.70100        5.79500
F         14.27700        7.98300        6.89000
F         12.40400        7.32400        5.08600
F         13.17000        7.38300        3.05500
F         13.59500        9.01200        4.42600
F         17.01600        6.68900        4.19100
F         15.87500        8.17800        3.10300
F         15.52800        6.06600        2.74200
F         11.53000        3.17200        9.95900
F         11.15200        2.88800        7.84100
F         13.13400        2.52800        8.64700
F         14.20700        6.18200        9.21800
F         12.25900        7.10900        8.97400
F         12.61900        5.75700       10.63200
F         10.12400        4.50400        7.97200
F         10.99300        6.44700        7.54700
F         10.62400        5.84800        9.60000
F         17.71000        2.09400        4.51700
F         17.62300        4.13800        5.23700
F         16.03300        3.36200        3.98100
F         15.60200        0.76600        4.77000
F         14.81900        0.67400        6.79300
F         16.93200        0.34600        6.43200
F         18.16900        2.58400        7.44300
F         16.38900        1.92700        8.49600
F         16.65900        4.02800        8.02800
F         12.18100        2.59800        1.63700
F         14.00100        3.11300        2.70100
F         12.55500        4.65500        2.21300
F         10.82100        1.11700        3.43300
F         12.96800        0.98500        3.72200
F         11.66100        1.30000        5.42400
F          9.79800        3.54700        3.07800
F          9.97600        3.29600        5.22300
F         10.69700        5.11100        4.28200
Al         3.90800       14.70600        5.38400
O          4.96400       13.54400        5.40600
O          2.72700       14.13800        6.52000
O          3.31000       14.86300        3.75300
O          4.55300       16.17300        5.84200
C          6.07100       12.74600        5.01300
C          6.17700       11.71400        6.15900
C          7.39100       13.55300        4.94000
C          5.87400       12.05300        3.64500
C          1.68600       13.44600        6.89900
C          1.43500       12.22100        5.98400
C          0.41600       14.32900        6.88100
C          1.98200       13.01700        8.35800
C          3.02400       15.57800        2.66700
C          3.10800       14.57900        1.48800
C          4.03200       16.72500        2.40700
C          1.58800       16.15400        2.74200
C          4.92000       17.01400        6.88600
C          4.76000       16.37000        8.28600
C          4.10600       18.32800        6.81100
C          6.41600       17.36100        6.68500
F          5.24000       10.79500        6.07300
F          6.05400       12.28400        7.33900
F          7.33600       11.09100        6.14700
F          7.83700       13.86500        6.13600
F          7.23700       14.68000        4.27500
F          8.34300       12.87300        4.33600
F          4.63500       11.64800        3.48000
F          6.15400       12.86100        2.64400
F          6.65000       10.99600        3.51800
F          0.25600       11.68100        6.21300
F          1.47200       12.54900        4.71100
F          2.33500       11.28300        6.17400
F         -0.55300       13.79900        7.59700
F         -0.04500       14.49300        5.66200
F          0.65000       15.52600        7.37300
F          1.10600       12.13900        8.79400
F          1.95000       14.04200        9.18200
F          3.17300       12.46800        8.46900
F          2.50300       15.04200        0.41600
F          2.54900       13.42900        1.78400
F          4.35600       14.33000        1.15200
F          4.01700       17.10800        1.14900
F          5.26300       16.36200        2.68700
F          3.76300       17.78400        3.13900
F          1.37100       17.03900        1.79500
F          1.36400       16.75300        3.89100
F          0.67900       15.21200        2.61100
F          5.50000       16.97800        9.18700
F          5.11700       15.10400        8.28100
F          3.51400       16.42200        8.70600
F          4.24400       19.04800        7.90400
F          2.82000       18.09700        6.66000
F          4.48700       19.07900        5.80200
F          6.75800       18.43900        7.35700
F          6.69500       17.59000        5.41800
F          7.20000       16.38600        7.08400
