230
C:\Users\Javier\OneDrive - Universitat de Barcelona\Tesi\4 - Contribucions\Treballs\3-PhD\chapter_1\cif\pc3p\PEBNAO.pc3p.pdb
Rh         0.52000       15.82100       25.23500
Ga        -0.45200       13.74500       24.14700
N         -2.21500       13.25300       23.66000
N          0.45000       12.15100       23.62300
C         -3.89200       11.89900       22.50100
C         -2.47100       12.17400       22.92000
C         -1.49000       11.26300       22.52600
C         -0.14000       11.20400       22.90000
C          0.64200       10.00700       22.44800
C         -3.30400       14.00500       24.26500
C         -3.79700       13.56300       25.49800
C         -4.80700       14.31200       26.09900
C         -5.30100       15.44800       25.49800
C         -4.79900       15.86900       24.29900
C         -3.79100       15.16400       23.64500
C         -3.31400       12.29000       26.17300
C         -3.24300       15.67600       22.33000
C          1.82300       12.00300       24.07500
C          2.87300       12.37300       23.21400
C          4.17300       12.26500       23.70700
C          4.42500       11.81400       24.97900
C          3.37900       11.46500       25.80600
C          2.05900       11.54700       25.37700
C          2.64100       12.89500       21.79900
C          0.93600       11.07700       26.28700
C         -2.58700       17.05600       22.52100
C         -4.33100       15.78100       21.25600
C          2.99800       14.36800       21.70700
C          3.43100       12.10000       20.75300
C          1.07200       11.56500       27.72400
C          0.86300        9.55800       26.25200
C         -2.88600       12.53100       27.62300
C         -4.34700       11.17100       26.09400
P          0.63200       16.52400       27.36200
P          1.77600       17.56800       24.58000
C          0.50800       18.32800       27.62200
C          1.56500       19.16400       26.91200
C          1.42800       19.17300       25.38600
C         -0.78100       15.96200       28.37800
C         -0.61800       15.17400       29.49900
C         -1.73100       14.81400       30.26300
C         -2.98300       15.25300       29.91600
C         -3.16000       16.02200       28.78500
C         -2.06100       16.37300       28.00600
C          2.12000       16.03700       28.30300
C          2.81900       14.92700       27.89400
C          3.94000       14.49300       28.57700
C          4.40200       15.20300       29.66000
C          3.71700       16.31400       30.08100
C          2.57300       16.73000       29.40900
C          1.71200       18.01400       22.80700
C          0.59000       18.66100       22.30500
C          0.49500       18.95900       20.94500
C          1.51400       18.61000       20.09100
C          2.63000       17.96000       20.58500
C          2.74100       17.67900       21.93900
C          3.53900       17.27000       24.90900
C          4.45200       18.29700       25.13600
C          5.78100       18.00600       25.41500
C          6.21700       16.69900       25.44100
C          5.32600       15.67500       25.19700
C          4.00200       15.95800       24.93600
H         -3.95500       11.07700       22.01000
H         -4.46100       11.84600       23.27200
H         -4.20500       12.60600       21.95000
H         -1.78000       10.59500       21.94600
H          1.33200        9.79300       23.07600
H          0.06400        9.25600       22.35800
H          1.04100       10.20000       21.61100
H         -5.15500       14.03500       26.92800
H         -5.97400       15.93900       25.91400
H         -5.13200       16.64500       23.90200
H         -2.51200       11.99600       25.69500
H         -2.57600       15.03700       22.00600
H          4.89400       12.50700       23.16000
H          5.30400       11.75100       25.29200
H          3.55700       11.16000       26.66500
H          1.68300       12.80300       21.59900
H          0.09000       11.41500       25.93000
H         -2.12200       17.29900       21.71500
H         -3.27000       17.70600       22.70900
H         -1.97200       17.02100       23.25600
H         -3.96700       16.21200       20.48200
H         -5.06400       16.29200       21.57900
H         -4.64100       14.89900       21.01200
H          2.76500       14.71900       20.83700
H          2.51200       14.85100       22.38600
H          3.94700       14.48200       21.85900
H          3.22200       12.44100       19.87900
H          4.38300       12.21400       20.91300
H          3.19600       11.16700       20.79700
H          0.32100       11.25800       28.23700
H          1.09800       12.52800       27.76200
H          1.87700       11.21600       28.11800
H          0.08300        9.28300       26.70900
H          1.64500        9.20700       26.67700
H          0.82300        9.26700       25.35100
H         -2.45400       11.75300       27.97000
H         -3.67200       12.71000       28.14600
H         -2.29400       13.28200       27.69100
H         -4.04900       10.42500       26.62500
H         -5.19700       11.48700       26.41700
H         -4.43400       10.90200       25.17600
H          0.56400       18.51000       28.57300
H         -0.36000       18.60700       27.29500
H          1.49600       20.07100       27.23200
H          2.44100       18.83300       27.15200
H          2.03500       19.83200       25.02000
H          0.52200       19.41600       25.16000
H          0.23600       14.89200       29.73800
H         -1.61700       14.26700       31.01200
H         -3.71400       15.02700       30.44900
H         -4.00800       16.31200       28.54100
H         -2.17600       16.88900       27.23600
H          2.53100       14.45700       27.14400
H          4.37700       13.72500       28.30100
H          5.17700       14.93000       30.09800
H          4.02100       16.78900       30.82400
H          2.10600       17.47400       29.69400
H         -0.10700       18.89300       22.88500
H         -0.25700       19.40100       20.61300
H          1.45800       18.81300       19.18000
H          3.32000       17.71000       20.00600
H          3.50600       17.25800       22.26200
H          4.17300       19.18900       25.09600
H          6.38600       18.69500       25.57900
H          7.10400       16.50600       25.62700
H          5.61400       14.79500       25.21600
H          3.41200       15.25200       24.78100
H         -0.38400       14.17200       25.81000
H          0.23300       15.14500       23.40300
C         -2.54200       12.57800       27.46300
C         -4.45500       11.31300       26.43700
H         -2.69800       11.84500       25.55500
H         -2.26900       11.75500       27.87000
H         -3.10100       13.05900       28.07800
H         -1.75800       13.10200       27.26300
H         -4.09400       10.49300       26.79600
H         -5.06500       11.70600       27.07600
H         -4.92100       11.13200       25.61500
B          8.54100        8.25800       25.00900
C          8.36800        9.88600       24.97900
C          8.23900       10.68600       26.11300
C          8.15200       12.07400       26.04300
C          8.20700       12.73400       24.82900
C          8.34600       11.95000       23.67400
C          8.41100       10.58000       23.75800
C          7.97400       12.84500       27.30700
C          8.35400       12.61700       22.33400
C          7.62200        7.55400       23.84400
C          6.38000        8.07900       23.47800
C          5.52200        7.41600       22.60000
C          5.87100        6.19300       22.05800
C          7.09300        5.64500       22.42500
C          7.94500        6.31100       23.28600
C          4.19200        8.02300       22.30700
C          7.48800        4.33200       21.84100
C         10.13300        7.96900       24.75100
C         10.66900        7.89300       23.46300
C         12.02900        7.68100       23.23300
C         12.90900        7.52900       24.28100
C         12.40800        7.60600       25.57300
C         11.05700        7.84800       25.79900
C         12.49500        7.56300       21.81800
C         13.31800        7.41600       26.74800
C          7.96600        7.57500       26.38800
C          8.52000        6.43900       26.98200
C          7.90000        5.77700       28.04900
C          6.68900        6.21800       28.54700
C          6.11500        7.32300       27.97100
C          6.73900        7.99100       26.91900
C          8.53400        4.57300       28.66300
C          4.77200        7.77000       28.45500
F          8.90800       12.55400       28.22100
F          6.80100       12.57300       27.89700
F          8.02400       14.16400       27.14400
F          8.61700       13.91000       22.40400
F          7.20100       12.51500       21.70700
F          9.25600       12.10600       21.51100
F          3.35300        7.95100       23.33800
F          4.27200        9.31000       21.99400
F          3.56700        7.43300       21.28400
F         11.99200        8.52200       21.02300
F         12.15300        6.41300       21.25900
F         13.82500        7.64900       21.70100
F         13.36000        8.46400       27.53100
F         14.56700        7.17700       26.39600
F         12.95600        6.39600       27.52200
F          9.31600        4.87100       29.68600
F          7.63900        3.69800       29.13200
F          9.29000        3.89800       27.81000
F          4.84500        8.70300       29.35200
F          4.01600        8.24700       27.49500
F          4.06900        6.78100       29.01300
F          8.29500        4.45600       20.78500
F          8.14300        3.55100       22.71300
F          6.44300        3.61600       21.42400
H          8.20900       10.27400       26.94400
H          8.16500       13.66300       24.78100
H          8.48700       10.08400       22.96400
H          6.11900        8.89300       23.83500
H          5.30800        5.74200       21.46700
H          8.76700        5.91400       23.51100
H         10.10100        7.99100       22.72500
H         13.80700        7.37500       24.13000
H         10.76400        7.92900       26.68500
H          9.32100        6.11700       26.66100
H          6.28000        5.76900       29.24300
H          6.32200        8.74000       26.54900
F          7.85000        4.42100       20.56300
F          8.51900        3.77300       22.47300
F          6.49800        3.42700       21.88300
F          9.26200       13.59000       22.24700
F          7.20200       13.17200       22.03300
F          8.62300       11.78200       21.34600
F          3.21100        7.48700       23.02800
F          4.15600        9.32900       22.55300
F          3.82900        7.88100       21.03100
F         12.44300        8.71500       21.16000
F         11.76900        6.70300       21.10600
F         13.76300        7.14100       21.72300
F         14.13900        8.44500       26.93600
F         14.09100        6.35100       26.63300
F         12.66200        7.26600       27.88400
F          9.71800        4.82800       29.18300
F          7.80900        4.05200       29.64300
F          8.72500        3.59300       27.79200
F          4.59900        7.56400       29.74700
F          4.55800        9.09700       28.25700
F          3.78700        7.15600       27.85800
