89
C:\Users\Javier\OneDrive - Universitat de Barcelona\Tesi\4 - Contribucions\Treballs\3-PhD\chapter_1\cif\pc3p\PEVSOA.pc3p.pdb
Ru         2.74700        6.22300        3.99200
Cl         0.60400        5.72700        2.94600
Cl         1.93800        8.23500        5.21200
P          3.47200        4.29400        3.04100
P          3.10400        7.43200        2.05000
N          4.45200        6.45000        5.18900
N          2.19500        5.22200        5.76500
C          4.59000        8.50100        1.89300
C          2.74000        2.83200        3.87100
C          6.18200        4.91700        2.78400
H          5.87000        5.78900        2.70000
C          3.06500        4.05500        1.27300
H          3.37300        3.17900        0.99400
H          2.10100        4.07800        1.16500
C          1.85100        8.72500        1.59200
C          3.03000        6.48600        0.46700
H          2.09400        6.37500        0.23800
H          3.42400        7.04400       -0.22200
C          6.69100       10.31900        1.70400
H          7.38800       10.93200        1.63200
C          5.61900        8.28900        0.98900
H          5.60900        7.53400        0.44600
C          7.13100        2.35000        2.95500
H          7.44900        1.47800        3.00100
C          5.76200        2.59100        3.04500
H          5.17100        1.87700        3.13800
C          1.55600        2.27500        3.42700
H          1.16400        2.58800        2.64200
C         -0.20800        9.92300        1.94600
H         -0.97100       10.07100        2.45700
C          1.14900       10.47000        0.06300
H          1.29500       10.96900       -0.70700
C          4.38600        5.84600        6.41700
C          0.69400        8.93900        2.32600
H          0.52300        8.42000        3.07900
C          5.69300       10.52600        2.61300
H          5.71600       11.27300        3.16600
C          0.01800       10.68100        0.82000
H         -0.59400       11.33600        0.57000
C          5.27100        3.89000        2.99500
C          4.65100        9.62400        2.71500
H          3.98000        9.76900        3.34300
C          2.07100        9.50400        0.45800
H          2.84400        9.37800       -0.04200
C          3.10700        5.20400        6.75200
C          6.66700        9.19900        0.88900
H          7.35100        9.05400        0.27500
C          1.49400        0.78200        5.30200
H          1.07700        0.09800        5.77400
C          3.68800        5.11000        0.37100
H          3.63800        4.80300       -0.54800
H          4.62800        5.19700        0.59900
C          8.01500        3.39100        2.79500
H          8.92900        3.22500        2.75800
C          7.97200        7.78900        5.16000
H          8.58400        7.91800        5.89000
H          7.74000        8.63900        4.78100
H          8.38800        7.24200        4.49000
C          6.64400        6.46500        6.88400
H          7.38100        6.45000        7.44800
C         -0.73400        3.45400        7.33700
H         -0.65100        2.50800        7.47800
H         -1.24700        3.61400        6.54100
H         -1.17800        3.85200        8.08900
C          0.98400        4.67700        5.99100
H          0.34800        4.71500        5.31300
C          0.94600        1.24800        4.14300
H          0.15400        0.87500        3.82800
C          3.28800        2.35300        5.06000
H          4.07800        2.72200        5.38600
C          7.54200        4.67800        2.69200
H          8.13300        5.38400        2.56000
C          2.66200        1.32600        5.76900
H          3.03800        1.01000        6.56000
C          5.47600        5.84800        7.26600
H          5.42100        5.43200        8.09500
C          5.57800        7.10000        4.88300
H          5.59500        7.58400        4.08900
C          2.82300        4.62000        7.96800
H          3.46100        4.61300        8.64600
C          1.58900        4.04600        8.17300
H          1.39600        3.64500        8.98900
C          6.72200        7.10200        5.66600
C          0.64500        4.06400        7.18200
Cl         8.30900        2.01600       10.60100
Cl         6.13800        2.36800        8.66300
C          6.68800        2.27700       10.33300
H          6.44200        3.10600       10.77300
H          6.19500        1.56400       10.77000
