84
C:\Users\Javier\OneDrive - Universitat de Barcelona\Tesi\4 - Contribucions\Treballs\3-PhD\chapter_1\cif\pc3p\PIHQUV.pc3p.pdb
C          2.38200        5.87700        3.79900
C          4.69600        5.87700        1.48500
C          6.56500        7.16900        5.81800
H          7.21300        7.90100        5.97100
H          6.04500        7.05300        6.65400
C          7.34800        5.87700        5.55400
H          7.64700        5.87700        4.61000
H          8.15900        5.87700        6.12300
C          4.33000        8.92800        5.36200
H          3.74000        9.34300        4.66800
C          5.07900       10.08500        6.04800
H          5.67900        9.71900        6.74600
H          5.63700       10.55600        5.38100
C          4.10500       11.07400        6.68400
H          4.61600       11.77800        7.15700
H          3.57100       11.51000        5.97300
C          3.16800       10.38800        7.66800
H          3.68900       10.04300        8.43500
H          2.51100       11.04500        8.01100
C          2.43200        9.23700        6.99700
H          1.83100        9.59600        6.29800
H          1.87400        8.77100        7.66900
C          3.40200        8.24000        6.36800
H          2.89000        7.52800        5.90900
H          3.94500        7.81700        7.07900
C          6.47200        8.78600        3.41700
H          6.88600        9.47400        4.01300
C          7.60600        8.02600        2.71800
H          8.17500        7.58400        3.39800
H          7.22200        7.32300        2.13600
C          8.46400        8.97400        1.87300
H          8.89400        9.64300        2.46100
H          9.17700        8.45900        1.42000
C          7.61300        9.68600        0.83200
H          7.24100        9.02300        0.19800
H          8.17800       10.31800        0.31900
C          6.46800       10.45200        1.50200
H          5.89600       10.86100        0.80600
H          6.84100       11.17900        2.06000
C          5.61900        9.52200        2.37700
H          4.92500       10.05500        2.84200
H          5.16100        8.85800        1.80200
O          1.27300        5.87700        4.02500
O          4.90900        5.87700        0.35800
P          5.40300        7.68500        4.47400
Pd         4.30000        5.87700        3.38800
C          6.56500        4.58600        5.81800
H          7.21300        3.85300        5.97100
H          6.04500        4.70200        6.65400
C          4.33000        2.82700        5.36200
H          3.74000        2.41200        4.66800
C          5.07900        1.67000        6.04800
H          5.67900        2.03600        6.74600
H          5.63700        1.19900        5.38100
C          4.10500        0.68100        6.68400
H          4.61600       -0.02400        7.15700
H          3.57100        0.24400        5.97300
C          3.16800        1.36700        7.66800
H          3.68900        1.71100        8.43500
H          2.51100        0.71000        8.01100
C          2.43200        2.51700        6.99700
H          1.83100        2.15800        6.29800
H          1.87400        2.98300        7.66900
C          3.40200        3.51400        6.36800
H          2.89000        4.22700        5.90900
H          3.94500        3.93800        7.07900
C          6.47200        2.96800        3.41700
H          6.88600        2.28000        4.01300
C          7.60600        3.72900        2.71800
H          8.17500        4.17100        3.39800
H          7.22200        4.43100        2.13600
C          8.46400        2.78000        1.87300
H          8.89400        2.11100        2.46100
H          9.17700        3.29600        1.42000
C          7.61300        2.06800        0.83200
H          7.24100        2.73200        0.19800
H          8.17800        1.43600        0.31900
C          6.46800        1.30300        1.50200
H          5.89600        0.89300        0.80600
H          6.84100        0.57600        2.06000
C          5.61900        2.23200        2.37700
H          4.92500        1.70000        2.84200
H          5.16100        2.89600        1.80200
P          5.40300        4.07000        4.47400
