57
C:\Users\Javier\OneDrive - Universitat de Barcelona\Tesi\4 - Contribucions\Treballs\3-PhD\chapter_1\cif\pc3p\PPOLRH.pc3p.pdb
Rh         1.09000        3.84400        0.74200
Cl         0.42800        5.05300       -1.20900
P          1.86700        2.72500        2.45400
P         -0.82200        4.35600        1.89600
C          2.62800        2.90100       -0.52400
C          3.21800        3.94200        0.15900
C          4.11800        3.75200        1.33400
C          3.69200        2.62000        2.22600
C          1.59500        3.42100        4.12300
C          0.11300        3.52300        4.47700
C         -0.65500        4.59500        3.70700
H          2.84100        1.93300       -0.22500
H          2.25100        3.07900       -1.33100
H          3.15800        4.74600       -0.29100
C          1.37800        0.97600        2.67000
C          0.41300        0.43900        1.81800
C          0.05900       -0.90600        1.92400
C          0.67100       -1.71400        2.88300
C          1.63600       -1.17700        3.73500
C          1.99000        0.16800        3.62900
C         -1.74900        5.88000        1.48200
C         -1.02600        7.04100        1.20400
C         -1.69800        8.22900        0.91700
C         -3.09300        8.25700        0.90800
C         -3.81500        7.09700        1.18500
C         -3.14300        5.90800        1.47300
C         -2.04700        3.02700        1.65500
C         -2.72100        2.38700        2.69500
C         -3.56700        1.31200        2.42100
C         -3.73800        0.87700        1.10700
C         -3.06400        1.51800        0.06700
C         -2.21800        2.59300        0.34100
H          5.05700        3.66900        1.07400
H          4.10700        4.60700        1.87900
H          3.91400        1.77600        1.82500
H          4.12100        2.63000        3.11400
H          2.02700        2.84800        4.79100
H          1.98100        4.28900        4.20100
H         -0.32000        2.68000        4.26800
H         -0.01400        3.68500        5.40900
H         -0.19300        5.44400        3.83800
H         -1.53600        4.69100        4.06600
H          0.02100        1.00500        1.15400
H         -0.61500       -1.24000        1.34200
H          0.37400       -2.61300        2.97900
H          1.98900       -1.72500        4.42900
H          2.61600        0.53600        4.24100
H         -0.08700        7.01900        1.19400
H         -1.20300        9.01300        0.72500
H         -3.55100        9.08000        0.73800
H         -4.76900        7.13600        1.19400
H         -3.65200        5.12600        1.65100
H         -2.61000        2.68000        3.59700
H         -4.00800        0.85400        3.12700
H         -4.30300        0.13400        0.92600
H         -3.18500        1.22300       -0.83200
H         -1.78600        3.04900       -0.36200
