157
C:\Users\Javier\OneDrive - Universitat de Barcelona\Tesi\4 - Contribucions\Treballs\3-PhD\chapter_1\cif\pc3p\QAJDEN.pc3p.pdb
Pd        10.66800        4.05200        9.89800
S          9.96800        5.82600       11.23500
P         12.51700        5.21700        9.33300
P         11.29600        2.28800        8.55100
O          7.35700        4.33300        8.70100
O          6.32400        5.67000       10.18800
N          8.88900        3.09300       10.51900
H          8.54800        2.62200        9.82000
H          9.08700        2.50200       11.18300
C         12.30300        6.12400        7.76700
C          9.66100        3.27000        6.53800
H          9.26200        3.78900        7.22500
C          7.13700        4.75900        9.86400
C         12.86900        7.85200       10.24300
H         12.50500        8.12900        9.41000
C          7.84900        4.04500       11.01500
H          7.16500        3.51600       11.51600
C         13.52900        6.09500       11.76600
H         13.60400        5.17100       11.96900
C         13.09400        1.93700        8.49500
H         13.39200        1.65700        9.39700
H         13.25300        1.18000        7.87700
C         10.75900        2.47200        6.80800
C         14.05400        4.24100        9.13500
H         14.79200        4.85100        8.88300
H         14.28800        3.83100       10.00400
C         10.93400        0.14900       10.27600
H         11.47900        0.65900       10.86400
C         10.58300        0.66800        9.04200
C          9.14400        3.30200        5.23000
H          8.40100        3.85900        5.02900
C         11.92200        7.67700        5.47500
H         11.79600        8.22500        4.70800
C         13.77700        8.39000       12.43300
H         14.02400        9.03000       13.09000
C         13.01700        6.50000       10.52900
C         10.49200       -1.11600       10.66600
H         10.73800       -1.47000       11.51300
C          8.52100        4.99400       11.99900
H          8.81800        4.48600       12.79600
H          7.86900        5.67600       12.29900
C          9.68200       -1.86200        9.79800
H          9.37100       -2.72200       10.05100
C         13.38400        6.54900        7.01100
H         14.26500        6.32300        7.28600
C          9.75400       -0.05800        8.19800
H          9.47400        0.31800        7.37400
C         11.34200        1.71300        5.78000
H         12.10900        1.18000        5.95300
C         10.78800        1.75100        4.51300
H         11.16100        1.22400        3.81500
C         13.93200        3.11000        8.05300
H         13.53400        3.49400        7.23100
H         14.84000        2.78600        7.82400
C         13.26100        8.80600       11.19700
H         13.17800        9.73400       11.00400
C         11.00700        6.49600        7.35700
H         10.25300        6.22900        7.86600
C         10.83500        7.25300        6.20800
H          9.95900        7.48100        5.92500
C          9.33500       -1.32500        8.55000
H          8.80900       -1.83400        7.94300
C          9.69200        2.55500        4.26500
H          9.31900        2.57500        3.39100
C         13.19900        7.30400        5.85900
H         13.94900        7.56200        5.33500
C         13.92400        7.04800       12.68900
H         14.30200        6.76800       13.51400
Pd        13.92900        0.85400       14.30500
S         13.26200        2.31800       12.63000
P         15.65400        0.16900       13.01000
P         14.52500       -0.67200       15.94400
O         10.46300       -0.05100       14.22000
O          9.66300        1.49700       12.81800
N         12.23900        1.57400       15.37500
H         11.85000        0.88100       15.81900
H         12.51400        2.18200       15.99300
C         11.23600        2.20300       14.49500
H         10.61400        2.73500       15.06900
C         15.27700       -1.38700       12.16100
C         11.91600        3.16300       13.54400
H         12.29000        3.92300       14.05500
H         11.25300        3.51800       12.90100
C         10.39200        1.11800       13.76100
C         17.12800       -1.25900       14.96500
H         18.04700       -1.50000       15.24200
H         16.72200       -2.05800       14.54400
C         16.25000        1.31200       11.71100
C         14.53400       -3.52200       15.90700
H         15.38500       -3.48400       16.33100
C         13.96900       -1.81800       12.06000
H         13.26400       -1.28200       12.40000
C         17.20800       -0.15400       13.93100
H         17.91700       -0.38400       13.28000
H         17.48100        0.68100       14.38800
C         13.85300       -2.34200       15.59700
C         17.33400        3.03600        9.82000
H         17.70300        3.62800        9.17400
C         16.66900        2.58500       12.10100
H         16.58300        2.86500       13.00500
C         16.36500        0.92400       10.37500
H         16.06200        0.06600       10.10600
C         16.92200        1.78600        9.43800
H         17.01500        1.51000        8.53400
C         17.21700        3.44300       11.13600
H         17.51000        4.31100       11.38900
C         16.31400       -2.18900       11.64500
H         17.21700       -1.90100       11.70500
C         12.02200       -3.66500       14.75900
H         11.15400       -3.72000       14.37700
C         16.32300       -0.90000       16.20400
H         16.69200       -0.06400       16.58300
H         16.45300       -1.61500       16.87700
C         13.48700       -1.26500       18.50700
H         13.28200       -2.13100       18.17500
C         14.27700        0.99200       18.14200
H         14.62100        1.66000       17.55900
C         13.96500       -4.74900       15.60000
H         14.44500       -5.55000       15.77500
C         12.57100       -2.43200       15.02200
H         12.08500       -1.64300       14.81600
C         14.69100       -3.84200       10.95200
H         14.48800       -4.67800       10.54500
C         13.68400       -3.05300       11.45200
H         12.78200       -3.34500       11.38600
C         16.00300       -3.41100       11.04300
H         16.70100       -3.95100       10.69100
C         13.25700       -0.94700       19.87000
H         12.91500       -1.61000       20.45600
C         14.03300        1.29500       19.48800
H         14.20900        2.16900       19.81800
C         13.52900        0.31100       20.34600
H         13.37300        0.51400       21.25800
C         14.01700       -0.29000       17.65300
C         12.71200       -4.81500       15.04200
H         12.32300       -5.66100       14.85200
O          8.70100       -1.84300       13.32700
H          8.62100       -1.01300       13.43700
C          8.32200       -2.51300       14.51100
H          8.83500       -2.15700       15.26700
H          8.50200       -3.47100       14.41500
H          7.36500       -2.37400       14.67300
O          8.94900       15.79400        5.12600
H          8.12600       15.84700        5.28500
C          9.43000       17.05200        4.72400
H          8.72700       17.72400        4.84500
H          9.68600       17.01800        3.77900
H         10.21100       17.29200        5.26600
O          6.50500        8.22800        2.11900
H          5.95300        8.05900        1.50900
C          6.26400        9.53900        2.62500
H          6.46300        9.55900        3.58400
H          5.32400        9.77600        2.48200
H          6.83900       10.18000        2.15700
O          6.07500        4.78900        6.35700
O          7.25200        6.53400        4.72200
O          1.84300        0.78100        5.66700
