80
C:\Users\Javier\OneDrive - Universitat de Barcelona\Tesi\4 - Contribucions\Treballs\3-PhD\chapter_1\cif\pc3p\QALZOU.pc3p.pdb
Ru         3.21600        7.10100        9.45300
Cl         5.00700        8.24400        8.30000
Cl         4.54000        7.12300       11.56500
P          2.17900        9.08300        9.87400
P          2.19700        6.93400        7.45000
N          4.32700        5.25100        9.19800
H          4.30700        4.99900        8.31300
H          5.20500        5.38300        9.43800
N          1.97500        5.73400       10.53700
H          2.16100        5.79100       11.43600
H          1.09000        5.95000       10.41200
C          0.58700        8.94200       10.77500
C         -0.64200        9.38500       10.27600
H         -0.67100        9.90800        9.48400
C         -1.82200        9.05600       10.94100
H         -2.65600        9.34400       10.58600
C         -1.79300        8.32300       12.10200
H         -2.60500        8.09000       12.53700
C         -0.58700        7.92500       12.63500
H         -0.56600        7.44600       13.45600
C          0.60100        8.22700       11.97100
H          1.43000        7.94200       12.33700
C          3.02900       10.41500       10.83200
C          4.41700       10.44400       10.95000
H          4.93000        9.69500       10.66900
C          5.05700       11.56400       11.47800
H          6.00300       11.57500       11.55700
C          4.31500       12.66300       11.88800
H          4.75700       13.42800       12.23900
C          2.93800       12.64700       11.78900
H          2.43000       13.40000       12.07000
C          2.29300       11.52200       11.27300
H          1.34500       11.50700       11.22100
C          1.81200       10.15100        8.42300
H          1.24200       10.89900        8.73300
H          2.66600       10.54300        8.11100
C          1.12400        9.50500        7.21900
H          0.29900        9.05100        7.52500
H          0.86000       10.21400        6.58000
C          2.00800        8.49200        6.49600
H          2.90200        8.89100        6.34300
H          1.61200        8.28600        5.61200
C          3.09000        5.87100        6.23500
C          2.92200        4.48300        6.22400
H          2.29700        4.08200        6.81700
C          3.65700        3.67900        5.35500
H          3.53100        2.73800        5.35600
C          4.57500        4.25500        4.48800
H          5.08300        3.70800        3.90000
C          4.74700        5.62400        4.48300
H          5.36600        6.02000        3.88000
C          4.01800        6.43200        5.35500
H          4.15500        7.37300        5.35100
C          0.45800        6.32300        7.30300
C         -0.42100        6.50200        8.37300
H         -0.08000        6.80800        9.20600
C         -1.78100        6.24200        8.25000
H         -2.36200        6.38500        8.98700
C         -2.28800        5.77400        7.04400
H         -3.21300        5.58000        6.95700
C         -1.43300        5.58900        5.97000
H         -1.77800        5.27100        5.14400
C         -0.07300        5.86600        6.08900
H          0.50000        5.74400        5.34000
C          3.74000        4.16900       10.03600
H          4.07400        4.29200       10.97000
C          2.23000        4.34700       10.05500
H          1.89700        4.27900        9.11500
C          1.54100        3.26800       10.88300
H          0.55900        3.38100       10.82100
H          1.80100        3.36200       11.83300
C          1.92600        1.87300       10.38200
H          1.50200        1.18700       10.95600
H          1.59300        1.74900        9.45900
C          3.44400        1.69100       10.40700
H          3.67400        0.79900       10.04400
H          3.76500        1.73400       11.34200
C          4.14400        2.77000        9.57800
H          5.12400        2.66600        9.66500
H          3.90800        2.65600        8.62300
