81
C:\Users\Javier\OneDrive - Universitat de Barcelona\Tesi\4 - Contribucions\Treballs\3-PhD\chapter_1\cif\pc3p\QOPJUA.pc3p.pdb
C         -1.16400        2.21200        7.13000
H         -0.39400        1.66000        7.07000
C         -1.68300        2.81500        5.85400
H         -2.65700        2.96800        5.94000
H         -1.54100        2.17600        5.11300
C         -1.00000        4.13100        5.51300
H         -0.15300        3.93400        5.04000
H         -1.58100        4.63600        4.88900
C         -0.69700        5.00400        6.68900
H          0.14000        5.45400        6.68900
C         -1.51300        5.21500        7.76700
H         -1.17300        5.78600        8.44500
C         -2.88900        4.64500        8.00600
H         -3.35600        4.56300        7.13800
H         -3.40400        5.28000        8.56600
C         -2.88200        3.26800        8.69900
H         -2.90800        3.41000        9.67700
H         -3.71000        2.78800        8.44700
C         -1.71700        2.39400        8.38100
H         -1.32100        1.92000        9.10400
C          1.61000        6.89900        8.22600
C          1.06600        8.11600        8.60800
H          0.60100        8.19000        9.43400
C          1.19900        9.22900        7.78300
H          0.80700       10.05700        8.03600
C          1.89500        9.13700        6.60900
H          1.98600        9.89900        6.04900
C          2.46000        7.94200        6.23800
H          2.95900        7.88600        5.43300
C          2.30800        6.81300        7.03600
H          2.68300        5.98400        6.76200
C          0.77000        5.99300       10.81700
C          1.57800        6.74900       11.70500
H          2.48900        6.91400       11.49000
C          1.04400        7.24800       12.88100
H          1.58500        7.78600       13.44900
C         -0.25400        6.97800       13.24000
H         -0.59600        7.29500       14.06700
C         -1.06300        6.24200       12.38400
H         -1.96600        6.06200       12.61500
C         -0.53900        5.77500       11.19200
H         -1.10400        5.28300       10.60800
C          3.15800        4.95400        9.57500
H          3.62000        4.79000        8.71300
H          3.59200        5.73400       10.00200
C          3.35000        3.73100       10.47500
H          2.73100        3.79700       11.24600
H          4.27500        3.73000       10.82700
C          3.09300        2.40900        9.73800
H          3.46100        1.66500       10.28000
H          3.58000        2.42200        8.87800
C          0.67800        1.60700       11.07900
C          1.19600        0.49700       11.76200
H          1.86400       -0.04800       11.36300
C          0.71400        0.21200       13.02600
H          1.03700       -0.55000       13.49100
C         -0.22800        1.02100       13.61800
H         -0.54600        0.82100       14.49200
C         -0.70900        2.12400       12.94600
H         -1.34500        2.69500       13.35800
C         -0.26600        2.39500       11.66500
H         -0.62200        3.13800       11.19000
C          1.42600        0.50000        8.47900
C          2.32700        0.38500        7.43000
H          2.90300        1.11200        7.22300
C          2.39800       -0.77600        6.68500
H          3.03200       -0.84500        5.98000
C          1.56000       -1.83200        6.95100
H          1.61200       -2.62700        6.43600
C          0.64400       -1.72700        7.97400
H          0.05400       -2.45000        8.15300
C          0.57500       -0.57600        8.74300
H         -0.05400       -0.52000        9.45400
P          1.41100        5.36700        9.23400
P          1.32000        2.07600        9.40700
Rh         0.07500        3.71100        8.33300
B          4.10300        3.58300        5.73500
F          4.69000        4.84500        5.81700
F          2.78100        3.60300        6.13600
F          4.11400        3.27200        4.43200
F          4.74800        2.75000        6.51000
