73
C:\Users\Javier\OneDrive - Universitat de Barcelona\Tesi\4 - Contribucions\Treballs\3-PhD\chapter_1\cif\pc3p\RODYOZ.pc3p.pdb
I          4.71100       10.63100        2.66900
I          2.07600       12.79000        1.14600
Rh         2.37200       11.63800        3.54200
Cl        -2.79800       10.97500       -0.61900
Cl        -0.59900       12.31400       -2.00300
P          3.03700       11.10800        5.70500
P          0.64800       12.98200        4.31300
F          0.59000        9.63800        4.49700
F         -0.08100       10.50600        2.61500
F          2.48400        8.20800        3.16200
F          1.97100        9.27000        1.27200
F         -0.20000        7.45300        3.30400
F          0.99200        6.76800        1.60900
F         -0.49700        8.25000        1.32500
C          1.71500       11.06400        6.96600
H          1.13500       10.28200        6.78200
H          2.13300       10.92200        7.85100
C          0.84000       12.30200        7.04100
H          0.32400       12.27700        7.88600
H          1.42200       13.10300        7.06600
C         -0.12800       12.43800        5.88100
H         -0.83200       13.08800        6.12900
H         -0.56800       11.56300        5.73100
C          1.09000       10.12200        3.33700
C          1.51600        8.88400        2.48400
C          0.44800        7.83300        2.22200
C          3.92500        9.54800        6.06600
C          5.28700        9.55700        6.34200
H          5.77500       10.37100        6.30700
C          5.93500        8.36500        6.67100
H          6.86000        8.37600        6.88900
C          5.25100        7.18100        6.67900
H          5.70600        6.37300        6.88400
C          3.89000        7.15800        6.39100
H          3.41300        6.33700        6.40200
C          3.23600        8.34100        6.08700
H          2.30700        8.32800        5.89100
C          4.14600       12.44200        6.27200
C          4.96400       13.13200        5.37400
H          4.95200       12.89000        4.45500
C          5.78100       14.14600        5.78600
H          6.33400       14.59500        5.15700
C          5.80400       14.51900        7.11700
H          6.36700       15.22900        7.40200
C          5.01900       13.86300        8.01800
H          5.03900       14.11200        8.93400
C          4.19400       12.83700        7.60400
H          3.64800       12.39200        8.24300
C          1.29500       14.64200        4.69100
C          2.53100       15.06200        4.24700
H          3.07100       14.46600        3.74400
C          2.99800       16.33100        4.52200
H          3.85600       16.59900        4.21400
C          2.21900       17.21000        5.24200
H          2.54100       18.08200        5.44200
C          0.96200       16.81700        5.67400
H          0.41100       17.42700        6.14700
C          0.51300       15.54200        5.41600
H         -0.33900       15.27100        5.73400
C         -0.80200       13.34200        3.27200
C         -1.96000       12.56000        3.32900
H         -1.98300       11.79200        3.88900
C         -3.07500       12.89300        2.57400
H         -3.85900       12.35900        2.62400
C         -3.04700       13.99400        1.75400
H         -3.80600       14.21700        1.22700
C         -1.91500       14.77300        1.69700
H         -1.90300       15.53700        1.13300
C         -0.79400       14.46600        2.45000
H         -0.02300       15.01800        2.40500
C         -1.18100       11.65600       -0.47800
H         -0.55800       10.95100       -0.17000
H         -1.18900       12.37300        0.20300
