102
C:\Users\Javier\OneDrive - Universitat de Barcelona\Tesi\4 - Contribucions\Treballs\3-PhD\chapter_1\cif\pc3p\SEVVUL.pc3p.pdb
Pd         5.02400        4.55900        4.23800
P          7.29500        5.19000        4.22400
P          5.20100        2.26800        4.00300
O          3.79700       10.23200        3.75600
C          8.46100        3.81000        3.80600
H          8.53600        3.76000        2.82000
H          9.35600        4.04800        4.15700
C          8.10100        2.40400        4.33100
H          8.89900        1.82400        4.24800
H          7.88200        2.47600        5.29400
C          6.92400        1.72000        3.61000
H          6.98100        0.75000        3.79700
H          7.06100        1.83600        2.63600
C          7.68200        6.41900        2.84500
C          6.89800        5.91400        1.62100
H          7.06300        6.50900        0.86100
H          5.94000        5.90600        1.82600
H          7.19300        5.00700        1.39500
C          7.13700        7.81300        3.20800
H          7.67700        8.19700        3.93000
H          6.20600        7.73300        3.50500
H          7.18000        8.39600        2.42200
C          9.16700        6.53600        2.45400
H          9.50200        5.66100        2.17000
H          9.68400        6.84900        3.22700
H          9.26100        7.17600        1.71700
C          7.94000        5.86100        5.87400
C          6.86400        6.79600        6.45300
H          7.16500        7.14400        7.31900
H          6.02800        6.29800        6.57400
H          6.71300        7.54200        5.83600
C          9.28700        6.59100        5.80200
H          9.18600        7.40800        5.27200
H          9.95200        6.00700        5.38000
H          9.58200        6.82200        6.70700
C          8.09100        4.67400        6.84400
H          8.27400        5.01100        7.74700
H          8.83400        4.10500        6.55100
H          7.26300        4.15100        6.85100
C          4.28000        1.63400        2.46600
C          2.77100        1.49100        2.71800
H          2.43200        2.30700        3.14000
H          2.61100        0.72600        3.31000
H          2.31000        1.34800        1.86600
C          4.80400        0.28700        1.91800
H          4.77300       -0.38900        2.62600
H          5.72900        0.39700        1.61100
H          4.24400       -0.00000        1.16800
C          4.49100        2.70000        1.37200
H          4.07600        2.39600        0.53700
H          5.45000        2.83600        1.22800
H          4.08000        3.54400        1.65400
C          4.69500        1.23200        5.50700
C          3.34500        1.73000        6.04700
H          3.11900        1.24000        6.86500
H          2.64800        1.58000        5.37300
H          3.40500        2.68800        6.24600
C          5.73300        1.48700        6.60900
H          5.44900        1.04100        7.43500
H          5.80900        2.45100        6.76800
H          6.60100        1.13100        6.32900
C          4.63100       -0.28200        5.24500
H          5.47000       -0.57900        4.83200
H          3.88400       -0.47900        4.64200
H          4.49900       -0.75600        6.09300
C          2.96000        4.77100        4.26100
H          2.48600        4.41000        3.47000
H          2.51700        4.53000        5.11300
C          3.39200        6.13900        4.15300
C          3.37500        6.78400        2.86600
H          3.30700        6.23800        2.09200
C          3.45200        8.13500        2.69400
C          3.64100        8.99200        3.89500
C          3.56700        8.36100        5.21000
C          3.47800        6.99900        5.30000
H          3.47200        6.60200        6.16300
C          3.31900        8.78700        1.30800
C          2.15900        9.80500        1.32500
H          1.33000        9.34900        1.57800
H          2.05700       10.19900        0.43300
H          2.35400       10.51200        1.97400
C          4.62900        9.49500        0.91000
H          4.86400       10.15500        1.59400
H          4.50600        9.94800        0.04800
H          5.34700        8.83400        0.83100
C          3.00100        7.75300        0.21800
H          3.73200        7.10300        0.16100
H          2.90100        8.20800       -0.64500
H          2.16700        7.28900        0.44100
C          3.53500        9.26200        6.45600
C          3.42000        8.44700        7.74800
H          2.60000        7.91100        7.72600
H          3.39100        9.05600        8.51700
H          4.19500        7.85500        7.83000
C          2.29600       10.17300        6.37900
H          2.33700       10.71100        5.56100
H          2.27800       10.76700        7.15800
H          1.48500        9.62300        6.36900
C          4.80400       10.12300        6.56300
H          5.58700        9.54100        6.64700
H          4.74000       10.70200        7.35200
H          4.89200       10.67600        5.75800
