114
C:\Users\Javier\OneDrive - Universitat de Barcelona\Tesi\4 - Contribucions\Treballs\3-PhD\chapter_1\cif\pc3p\SEVWAS.pc3p.pdb
Pd         1.57100        2.87600        4.14900
P          1.94800        0.71100        4.76700
P         -0.29900        2.58100        2.69300
O          2.82600        8.16700        2.05200
C          0.71300       -0.41300        3.99300
H          1.03300       -1.34300        4.10500
H         -0.13300       -0.33200        4.50100
C          0.39700       -0.20000        2.51600
H          0.12900       -1.06400        2.11300
H          1.21500        0.11100        2.05100
C         -0.72900        0.83200        2.29900
H         -1.50500        0.56800        2.85600
H         -1.01600        0.78700        1.35300
C          3.62200        0.06100        4.10900
C          3.53800       -1.41200        3.70400
H          4.41300       -1.71400        3.38300
H          2.87400       -1.51600        2.99000
H          3.26900       -1.95000        4.47900
C          3.98600        0.87200        2.87000
H          4.03100        1.82300        3.10200
H          3.30300        0.73800        2.17900
H          4.85600        0.57700        2.52900
C          4.75700        0.21300        5.12100
H          5.60800       -0.03000        4.69800
H          4.59400       -0.37600        5.88700
H          4.80100        1.14300        5.42800
C          1.70900        0.28600        6.60000
C          2.65600        1.05100        7.52900
H          2.46400        0.81200        8.45900
H          2.52500        2.01400        7.40500
H          3.58400        0.81700        7.31500
C          0.29100        0.71800        6.98000
H         -0.35900        0.15500        6.50900
H          0.15600        1.65500        6.72800
H          0.16800        0.61900        7.94700
C          1.85300       -1.22600        6.85600
H          2.72300       -1.53100        6.52800
H          1.13900       -1.70600        6.38600
H          1.78500       -1.40100        7.81800
C         -1.89900        3.22800        3.43700
C         -1.90100        2.74200        4.90100
H         -1.12100        3.10800        5.36700
H         -1.86400        1.76300        4.91900
H         -2.72000        3.04600        5.34400
C         -1.87800        4.76200        3.44600
H         -1.97900        5.09500        2.53000
H         -1.02600        5.07500        3.81700
H         -2.61600        5.09500        3.99800
C         -3.18700        2.72000        2.76800
H         -3.96500        3.05600        3.25900
H         -3.19400        1.74100        2.77300
H         -3.22300        3.04100        1.84300
C          0.03100        3.33000        0.99400
C         -1.20300        3.37700        0.05900
H         -1.86000        4.01000        0.41800
H         -1.60600        2.48500        0.00500
H         -0.92600        3.66600       -0.83400
C          1.11700        2.44100        0.35000
H          1.37500        2.81900       -0.51700
H          0.76400        1.53700        0.21900
H          1.90100        2.40500        0.93600
C          0.61200        4.75300        1.14200
H          1.37300        4.73200        1.76100
H         -0.07700        5.35300        1.49300
H          0.91200        5.07600        0.26700
C          3.15200        3.57600        5.29200
H          2.93300        3.75600        6.24100
H          3.99500        3.06700        5.19500
C          3.01800        4.72400        4.40100
C          3.84400        4.87000        3.26300
H          4.47300        4.18600        3.06600
C          3.77400        5.97000        2.42200
C          2.86400        6.99800        2.79300
C          1.94400        6.85500        3.85900
C          2.02000        5.68300        4.63400
H          1.38700        5.54000        5.32700
C          0.90800        7.95200        4.21500
C          0.08800        7.56800        5.44500
H          0.68200        7.48700        6.22100
H         -0.35900        6.71100        5.28500
H         -0.58400        8.25900        5.61900
C         -0.05700        8.15100        3.03100
H         -0.75600        8.79000        3.28300
H         -0.46800        7.29300        2.79600
H          0.43900        8.49800        2.26000
C          1.57500        9.30200        4.54200
H          0.90500        9.91700        4.90600
H          1.95900        9.68300        3.72500
H          2.28600        9.16400        5.20200
C          4.65100        5.96400        1.14300
C          4.02500        6.66900       -0.06300
H          4.08700        7.64000        0.05800
H          3.08400        6.40800       -0.14300
H          4.50500        6.41100       -0.87800
C          4.72800        4.43300        0.59500
H          5.27200        4.40500       -0.22000
H          3.82300        4.11100        0.39500
H          5.13300        3.86100        1.27900
C          6.07400        6.28400        1.42300
H          6.61600        6.08200        0.63100
H          6.38700        5.74500        2.17900
H          6.15700        7.23500        1.64200
C          3.96600        9.04700        2.25800
H          4.03800        9.27000        3.21000
H          3.84200        9.87000        1.73800
H          4.78500        8.59600        1.96400
S         -0.35200        4.76900        8.29700
O         -1.63600        4.19500        8.00900
O          0.73000        4.35600        7.43800
O         -0.36800        6.17500        8.61900
C          0.08000        4.00300        9.89800
F          0.14700        2.67500        9.82700
F          1.24900        4.43200       10.35700
F         -0.84100        4.30600       10.83000
