38
C:\Users\Javier\OneDrive - Universitat de Barcelona\Tesi\4 - Contribucions\Treballs\3-PhD\chapter_1\cif\pc3p\SOGLAB.pc3p.pdb
Pd        -1.38800        3.90800        9.69100
Cl         0.00200        2.26300        8.69500
P         -0.16200        5.57700        8.85400
O          6.77800        6.15800        1.95900
O          4.44900        7.26600        0.91900
C         -1.12200        6.70200        7.75800
C         -2.62100        6.55900        7.90100
C         -2.32300        7.38600        8.38600
C          0.54400        6.61300       10.17400
C          1.30400        5.13500        7.84300
C          1.19300        5.06900        6.46100
C          2.30300        4.72500        5.68900
C          3.48800        4.45200        6.32500
C          3.58600        4.51400        7.68700
C          2.51100        4.83400        8.44400
C          4.54800        6.56700        3.26300
C          5.29300        6.72300        1.91200
H          0.35300        5.25500        6.03500
H          2.23500        4.68300        4.73200
H          4.26500        4.25400        5.79600
H          4.41700        4.26500        8.10200
H          2.59000        4.86400        9.40000
Cl        -2.77800        2.26300       10.68700
P         -2.61400        5.57700       10.52800
C         -3.32000        6.61300        9.20800
C         -0.15500        6.55900       11.48000
C         -1.65400        6.70200       11.62400
C         -4.08000        5.13500       11.53900
C         -3.96900        5.06900       12.92100
C         -5.28600        4.83400       10.93800
C         -5.07900        4.72500       13.69300
H         -3.12900        5.25500       13.34600
C         -6.36200        4.51400       11.69500
H         -5.36500        4.86400        9.98200
C         -6.26400        4.45200       13.05700
H         -5.01100        4.68300       14.65000
H         -7.19300        4.26500       11.28000
H         -7.04000        4.25400       13.58500
