36
C:\Users\Javier\OneDrive - Universitat de Barcelona\Tesi\4 - Contribucions\Treballs\3-PhD\chapter_1\cif\pc3p\SUDNAG.pc3p.pdb
Pd         7.72500        3.96000       14.19900
Se         8.58900        3.82200       11.90100
Se         9.94700        4.46700       15.19400
P          6.76600        4.32900       16.23700
P          5.78500        3.05300       13.40700
N         11.04400        4.73000       10.49900
N         10.87200        1.65800       15.00400
C         10.05400        4.37700       10.94100
C         10.55700        2.75300       15.05100
C          5.03000        4.90600       16.14700
C          4.05600        3.95300       15.45200
C          4.24800        3.86600       13.93300
C          7.53400        5.70200       17.15700
C          8.17600        5.51800       18.36900
C          8.76800        6.58800       18.99900
C          8.76800        7.83200       18.44900
C          8.16200        8.01000       17.23800
C          7.53100        6.95500       16.59000
C          6.78100        2.91800       17.36500
C          5.85700        2.79400       18.39900
C          5.91100        1.69200       19.24000
C          6.85200        0.72600       19.09200
C          7.27200        0.83800       18.08900
C          7.71300        1.92900       17.22000
C          5.69700        1.27400       13.95200
C          4.50600        0.66600       14.11900
C          4.49500       -0.67900       14.45400
C          5.67300       -1.35300       14.64100
C          6.84500       -0.71400       14.40400
C          6.89900        0.62100       14.15300
C          5.61200        2.93900       11.59200
C          6.24900        4.05300       10.86700
C          6.14500        3.99200        9.48800
C          6.41900        2.82100        8.82500
C          5.81300        1.64100        9.53600
C          5.90900        1.75500       10.92600
