76
C:\Users\Javier\OneDrive - Universitat de Barcelona\Tesi\4 - Contribucions\Treballs\3-PhD\chapter_1\cif\pc3p\TEBXUV.pc3p.pdb
Ru         2.70100        8.62100        3.54300
P          2.50200        6.61900        4.57300
P          4.96200        8.42800        3.64200
S          2.71800        9.98200        5.54200
S          2.02100        8.05500        1.27700
N          2.78200       10.70400        3.09800
N          0.60800        8.88600        3.22100
C          3.55200        6.51700        6.08300
H          3.31500        7.26300        6.68800
H          3.35200        5.67100        6.55500
C          5.06600        6.57500        5.78700
H          5.55700        6.32800        6.61100
H          5.27800        5.89700        5.09900
C          5.58200        7.94000        5.30400
H          6.57200        7.91500        5.28000
H          5.31500        8.63200        5.95900
C          2.84200       11.52800        2.05400
H          2.88400       11.17300        1.17400
C          2.84500       12.89500        2.24800
H          2.89900       13.49400        1.51200
C          2.76600       13.36600        3.54700
H          2.73900       14.30500        3.68500
N          2.72800       12.55900        4.62600
C          2.73900       11.25100        4.35600
C         -0.46100        9.33300        3.86100
H         -0.39700        9.56500        4.78000
C         -1.67300        9.46700        3.20000
H         -2.44600        9.79400        3.64500
C         -1.70700        9.10300        1.86700
H         -2.53600        9.16700        1.40800
N         -0.63800        8.66400        1.18200
C          0.49300        8.56600        1.89600
C          2.88500        5.00400        3.79200
C          3.32200        4.96800        2.47100
H          3.39200        5.77300        1.97200
C          3.65800        3.75100        1.88200
H          3.97300        3.73400        0.98500
C          3.54100        2.57500        2.58000
H          3.75900        1.74800        2.16400
C          3.10000        2.59600        3.90400
H          3.01400        1.78500        4.39200
C          2.78800        3.80200        4.50100
H          2.50200        3.81500        5.40700
C          0.80900        6.35000        5.22300
C         -0.05300        5.41400        4.67500
H          0.25100        4.85300        3.97100
C         -1.36900        5.28200        5.14900
H         -1.94400        4.62600        4.77200
C         -1.82600        6.10000        6.15500
H         -2.71100        6.00100        6.48200
C         -0.99700        7.06200        6.68600
H         -1.32200        7.64500        7.36100
C          0.31900        7.18700        6.23700
H          0.88800        7.84400        6.62200
C          5.79200       10.03400        3.32700
C          6.10000       10.92700        4.35200
H          5.95600       10.67600        5.25600
C          6.62000       12.18000        4.05900
H          6.82400       12.78200        4.76600
C          6.84000       12.56300        2.74100
H          7.20500       13.41900        2.54700
C          6.52300       11.69400        1.71600
H          6.66800       11.95100        0.81300
C          5.99400       10.44500        2.00500
H          5.76600        9.85900        1.29200
C          5.90400        7.34500        2.49200
C          7.09200        6.71200        2.85500
H          7.42800        6.82000        3.73700
C          7.79400        5.92300        1.94300
H          8.61300        5.51600        2.20200
C          7.30600        5.73000        0.66600
H          7.76800        5.16800        0.05500
C          6.13500        6.36500        0.28600
H          5.80300        6.25000       -0.59700
C          5.44400        7.16600        1.18200
H          4.64600        7.60100        0.90300
