76
C:\Users\Javier\OneDrive - Universitat de Barcelona\Tesi\4 - Contribucions\Treballs\3-PhD\chapter_1\cif\pc3p\TEBXUV01.pc3p.pdb
Ru        -0.74800        3.36900        3.58100
S         -0.72700        4.72400        5.58200
S         -1.42300        2.83100        1.30900
P          1.51100        3.17000        3.67800
P         -0.94800        1.36000        4.59800
N         -0.67300        5.45600        3.14400
N         -0.71000        7.30000        4.67400
N         -2.83900        3.63600        3.25200
N         -4.07600        3.44500        1.21100
C         -0.62700        6.29500        2.10900
H         -0.59800        5.95600        1.24400
C         -0.62100        7.64100        2.30500
H         -0.58100        8.23000        1.58700
C         -0.67600        8.10200        3.59900
H         -0.68800        9.02100        3.73600
C         -0.70500        5.99400        4.39600
C          2.12800        2.66500        5.33100
H          3.09700        2.63600        5.30600
H          1.87100        3.34000        5.97900
C          1.60900        1.30500        5.80700
H          2.09100        1.05600        6.61100
H          1.81400        0.64400        5.12700
C          0.10800        1.24900        6.10400
H         -0.12100        1.97800        6.70100
H         -0.08900        0.41800        6.56400
C         -2.64200        1.08300        5.25600
C         -3.50300        0.17400        4.68300
H         -3.21300       -0.35500        3.97600
C         -4.81600        0.04200        5.16000
H         -5.38400       -0.58900        4.77900
C         -5.26300        0.82600        6.17300
H         -6.13100        0.73100        6.49200
C         -4.42900        1.75600        6.71700
H         -4.74000        2.30900        7.39600
C         -3.12700        1.88700        6.27300
H         -2.57000        2.52300        6.66100
C         -0.57300       -0.25400        3.80300
C         -0.17400       -0.28700        2.48700
H         -0.12200        0.50100        1.99700
C          0.15300       -1.49700        1.88600
H          0.43800       -1.50700        1.00100
C          0.06200       -2.66300        2.57100
H          0.26400       -3.47100        2.15700
C         -0.33300       -2.63900        3.88700
H         -0.40100       -3.43400        4.36600
C         -0.63000       -1.43900        4.50300
H         -0.87200       -1.43000        5.40200
C          2.35000        4.77100        3.36600
C          2.68800        5.64800        4.37800
H          2.55900        5.39900        5.26400
C          3.21500        6.89000        4.09100
H          3.43800        7.46700        4.78600
C          3.41400        7.28400        2.79600
H          3.77600        8.12000        2.61000
C          3.07400        6.43800        1.77400
H          3.19900        6.70000        0.89000
C          2.54600        5.19800        2.05800
H          2.31500        4.63200        1.35800
C          2.44500        2.08400        2.51700
C          3.63600        1.46900        2.86400
H          3.98000        1.58300        3.72000
C          4.32100        0.68500        1.94300
H          5.12000        0.27900        2.19000
C          3.83600        0.50300        0.68600
H          4.28900       -0.04500        0.08700
C          2.67700        1.13000        0.30400
H          2.35300        1.02300       -0.56200
C          1.98900        1.92600        1.21200
H          1.21100        2.35800        0.94400
C         -3.91900        4.07300        3.86900
H         -3.86200        4.29400        4.77100
C         -5.11400        4.21000        3.23400
H         -5.87300        4.51400        3.67700
C         -5.13400        3.87400        1.89300
H         -5.94100        3.95300        1.43800
C         -2.95000        3.34300        1.92400
