70
C:\Users\Javier\OneDrive - Universitat de Barcelona\Tesi\4 - Contribucions\Treballs\3-PhD\chapter_1\cif\pc3p\TEKZUE.pc3p.pdb
Pd         0.80000        0.21900        3.79000
P         -0.31900        0.13100        5.78900
P         -0.06200       -1.81500        3.13100
S          2.03400        0.22400        1.83200
S          1.55100        2.32600        4.46000
C         -0.14000       -3.03600        4.48300
C         -1.00100       -2.62600        5.66200
C         -0.39000       -1.53700        6.54300
C          3.50500        1.25600        2.22500
C          3.29900        2.69000        2.27500
C          1.98300        3.15100        2.83800
C          0.80200       -2.66500        1.76600
C          0.49400       -2.31000        0.45400
C          1.22500       -2.88500       -0.59300
C          2.22300       -3.77500       -0.36000
C          2.52100       -4.12400        0.93500
C          1.82200       -3.56500        2.00800
C         -1.77300       -1.73600        2.50900
C         -2.25000       -0.53400        2.03100
C         -3.52500       -0.45300        1.49700
C         -4.32400       -1.57800        1.43600
C         -3.83400       -2.76300        1.90100
C         -2.56700       -2.85800        2.43200
C         -2.04400        0.70700        5.71100
C         -3.01100        0.32900        6.62600
C         -4.28800        0.82700        6.54600
C         -4.62600        1.70200        5.52500
C         -3.68200        2.10700        4.62900
C         -2.39300        1.60400        4.71800
C          0.42800        1.10900        7.14300
C         -0.23800        2.17300        7.74500
C          0.38700        2.90500        8.72900
C          1.65200        2.59400        9.13000
C          2.32000        1.56300        8.53800
C          1.71600        0.80700        7.54400
N          3.04400       14.28300        6.40400
C          3.59200       14.68500        5.54500
C          4.28400       15.21400        4.42600
H          0.75300       -3.17000        4.80700
H         -0.45300       -3.87300        4.13500
H         -1.17600       -3.39500        6.20900
H         -1.84100       -2.31900        5.31300
H         -0.90900       -1.47300        7.34600
H          0.49900       -1.80000        6.79200
H          4.18000        1.06300        1.57200
H          3.85000        0.99000        3.08100
H          3.37400        3.02200        1.37700
H          4.00400        3.09000        2.79000
H          2.00700        4.10000        2.97700
H          1.28100        2.95800        2.21100
H         -0.19900       -1.67100        0.27600
H          1.02200       -2.62900       -1.49500
H          2.70100       -4.16000       -1.09800
H          3.21200       -4.77000        1.09900
H          2.05200       -3.78300        2.91300
H         -1.69400        0.24700        2.06700
H         -3.86300        0.37500        1.14200
H         -5.22300       -1.53200        1.10100
H         -4.39500       -3.53900        1.85500
H         -2.23200       -3.70900        2.72600
H         -2.79600       -0.30200        7.31900
H         -4.93900        0.61000        7.21800
H         -5.53700        1.99000        5.42700
H         -3.91000        2.76600        3.96800
H         -1.74200        1.86100        4.06200
H         -1.12900        2.39900        7.46700
H         -0.06600        3.64600        9.13700
H          2.06800        3.08300        9.84200
H          3.22300        1.36300        8.79700
H          2.18800        0.08300        7.12900
