80
C:\Users\Javier\OneDrive - Universitat de Barcelona\Tesi\4 - Contribucions\Treballs\3-PhD\chapter_1\cif\pc3p\TIDYEM.pc3p.pdb
P          3.17800        3.15500        9.08800
P          5.92300        4.79200        9.12700
Pd         4.13700        4.70300       10.49000
C          1.91400        2.07700        9.80200
C          2.30800        1.12700       10.75600
H          3.21800        1.07800       11.02600
C          1.37200        0.25700       11.30700
H          1.63700       -0.38200       11.95700
C          0.05700        0.33100       10.90300
H         -0.58200       -0.26400       11.27700
C         -0.34200        1.25400        9.96400
H         -1.25100        1.28700        9.69500
C          0.58300        2.14100        9.40100
H          0.30500        2.77900        8.75400
C          2.35100        4.11400        7.78900
C          2.50500        3.82800        6.42900
H          3.02700        3.08500        6.15300
C          1.88800        4.63900        5.48500
H          2.01000        4.46000        4.55900
C          1.09700        5.70500        5.87600
H          0.66900        6.24600        5.22300
C          0.93000        5.98400        7.22800
H          0.38400        6.71300        7.50000
C          1.56100        5.20000        8.17300
H          1.45600        5.40000        9.09700
C          4.25900        1.91600        8.30500
H          4.52900        1.26200        8.99800
H          3.72400        1.42500        7.63200
C          5.53100        2.42300        7.61700
H          6.00400        1.65000        7.21500
H          5.27200        3.03000        6.88000
C          6.49300        3.15500        8.54000
H          7.35300        3.27600        8.06300
H          6.66900        2.58400        9.32800
C          5.62100        5.75500        7.62500
C          4.59200        6.69500        7.58900
H          4.11100        6.89800        8.38300
C          4.26500        7.33600        6.39400
H          3.56700        7.98100        6.37600
C          4.95500        7.03600        5.24100
H          4.71500        7.45300        4.42100
C          5.99600        6.12800        5.27600
H          6.48200        5.93900        4.48000
C          6.34200        5.48600        6.45900
H          7.06400        4.87100        6.47400
C          7.44000        5.41100        9.91600
C          7.90700        4.73200       11.04500
H          7.39600        4.02200       11.41600
C          9.11200        5.09000       11.62200
H          9.43400        4.62000       12.38300
C          9.85100        6.14200       11.08600
H         10.68500        6.38200       11.47400
C          9.37700        6.83400        9.99500
H          9.87500        7.56200        9.64200
C          8.16100        6.46700        9.40600
H          7.83300        6.94600        8.65500
C          1.57500        4.09200       12.42600
H          1.22700        3.30700       12.02000
C          1.85000        5.70400       13.79700
C          2.77400        7.48500       14.76400
H          2.75300        8.14600       15.44700
C          3.82300        6.70600       12.87300
C          2.82400        5.78100       12.80400
N          2.63800        4.76000       11.91100
N          1.04200        4.61200       13.55500
N          1.79100        6.59000       14.81400
N          3.81000        7.59900       13.87600
S          5.09500        6.58400       11.66400
C          5.13300        7.07900       12.10600
H          5.92600        7.22000       11.59400
C          3.68700        7.27600       13.58100
C          1.88700        6.81200       14.81900
H          1.35300        6.99100       15.57600
C          2.26300        5.44800       13.02500
C          3.36000        6.20000       12.79400
N          4.29300        6.06200       11.80700
N          4.83900        7.89300       13.14200
N          2.92800        7.61100       14.63700
N          1.46700        5.74100       14.05800
S          1.99500        4.12200       11.90300
