91
C:\Users\Javier\OneDrive - Universitat de Barcelona\Tesi\4 - Contribucions\Treballs\3-PhD\chapter_1\cif\pc3p\UCANUH.pc3p.pdb
Pd         4.55500        4.31100        4.48500
Fe         2.39200        5.21900        1.20500
Fe         2.71600        3.18800        2.88200
Fe         2.26600        5.46600        3.81700
P          6.04700        2.63800        5.06800
P          5.72000        5.92400        5.70100
O         -0.51300        4.93000        0.84900
O          2.46100        8.01300        0.31000
O          3.09300        4.04700       -1.38900
O         -0.10900        2.41700        2.62000
O          2.81400        1.51100        5.27700
O          3.69500        1.22400        0.93600
O         -0.65800        5.53600        3.86900
O          2.00400        4.55200        6.59300
O          2.79500        8.35600        3.56500
C          3.68200        4.83000        2.60900
C          4.49900        5.51100        1.69500
C          5.53200        4.96400        0.78600
C          5.96000        3.64800        0.82000
C          6.89200        3.17800       -0.10700
C          7.41500        4.02600       -1.06000
C          7.05500        5.36400       -1.05900
C          6.12600        5.82500       -0.13600
C          0.61400        5.01300        1.02900
C          2.39900        6.92400        0.66600
C          2.80300        4.47500       -0.37500
C          0.99600        2.75200        2.69800
C          2.85000        2.20500        4.35500
C          3.36800        2.00900        1.69900
C          0.48500        5.53400        3.79400
C          2.19100        4.93800        5.51200
C          2.60000        7.24100        3.73400
C          7.78900        3.19400        5.15600
C          8.03900        4.26500        6.21100
C          7.53300        5.64300        5.82600
C          5.75100        2.00100        6.74500
C          4.86100        2.67400        7.59100
C          4.70400        2.24300        8.90400
C          5.38600        1.15600        9.37100
C          6.26100        0.48100        8.53800
C          6.46000        0.90300        7.23700
C          6.16700        1.14400        4.01900
C          7.04100        1.12300        2.93400
C          7.09700        0.01200        2.10500
C          6.29800       -1.09200        2.33900
C          5.44700       -1.09300        3.42900
C          5.38600        0.01300        4.27200
C          5.16800        6.26800        7.40200
C          3.87800        6.76400        7.61900
C          3.44000        7.04100        8.89800
C          4.26200        6.82700        9.98500
C          5.53200        6.33900        9.78200
C          5.99200        6.05200        8.50300
C          5.76500        7.56500        4.89400
C          6.26600        7.62800        3.58600
C          6.34800        8.83900        2.93200
C          5.90500       10.00400        3.54700
C          5.41400        9.94600        4.83400
C          5.34900        8.73400        5.50500
H          4.60300        6.40200        1.86100
H          5.64000        3.00400        1.50700
H          7.09400        2.17000       -0.11300
H          8.07900        3.69800       -1.71100
H          7.42300        5.91100       -1.68600
H          5.86100        6.68100       -0.15600
H          8.34200        2.38700        5.29000
H          8.03000        3.53000        4.31000
H          7.67200        3.98800        6.94400
H          8.96800        4.31200        6.34200
H          7.83600        5.86600        5.02000
H          7.91500        6.32800        6.46700
H          4.41700        3.39200        7.29700
H          4.18400        2.71700        9.39800
H          5.27500        0.84400       10.22200
H          6.63700       -0.19000        8.81600
H          7.06800        0.43800        6.66400
H          7.57100        1.88100        2.76100
H          7.62900        0.01600        1.48900
H          6.37500       -1.79400        1.79300
H          4.99100       -1.83000        3.59900
H          4.85600       -0.04100        4.90300
H          3.31400        6.94700        6.90800
H          2.63200        7.33900        9.02400
H          3.99100        6.96200       10.80300
H          6.04400        6.12200       10.45500
H          6.86700        5.68900        8.39000
H          6.63000        6.81400        3.19800
H          6.63800        8.82600        2.12500
H          5.94500       10.79800        3.09400
H          5.13000       10.76000        5.25800
H          5.03400        8.70600        6.34200
