132
C:\Users\Javier\OneDrive - Universitat de Barcelona\Tesi\4 - Contribucions\Treballs\3-PhD\chapter_1\cif\pc3p\UHAMIC.pc3p.pdb
Pd        15.06600       12.23800        9.22200
C         12.88500       10.27200        7.45500
H         13.67000        9.97800        6.92700
H         12.25800        9.50900        7.50900
C         12.20100       11.41400        6.71500
H         11.48200       11.78100        7.28800
H         11.77800       11.05500        5.89400
C         13.14900       12.54300        6.32600
H         12.64200       13.19400        5.77900
H         13.85700       12.16400        5.74800
C         11.99900       11.20400       10.10100
C         12.12600       12.20900       11.04300
H         12.96800       12.62600       11.18400
C         11.02500       12.60800       11.77800
H         11.11100       13.31000       12.41100
C          9.79300       11.98800       11.59800
H          9.04300       12.26400       12.11100
C          9.66500       10.99200       10.69500
H          8.82300       10.56700       10.58300
C         10.75500       10.57700        9.92500
H         10.65500        9.87900        9.28700
C         13.99400        9.11300        9.80100
C         14.95400        8.39600        9.14900
H         15.35000        8.76200        8.36700
C         15.37200        7.14200        9.59200
H         16.03400        6.64900        9.11800
C         14.79400        6.63500       10.74000
H         15.05200        5.77900       11.05900
C         13.84100        7.36500       11.42900
H         13.48200        7.02000       12.23800
C         13.41500        8.58300       10.95800
H         12.73300        9.06100       11.41500
C         12.71800       14.44500        8.53800
C         13.10200       15.06500        9.72300
H         14.00100       15.00000       10.02100
C         12.17600       15.78000       10.46600
H         12.43800       16.20200       11.27600
C         10.87300       15.87200       10.02700
H         10.23600       16.35300       10.54200
C         10.48800       15.27700        8.85000
H          9.58800       15.35800        8.55800
C         11.39200       14.55800        8.08200
H         11.12200       14.15100        7.26800
C         15.03800       14.59300        6.77400
C         16.01900       14.03900        5.94200
H         16.11800       13.09700        5.88300
C         16.83600       14.86700        5.21500
H         17.50400       14.48900        4.65500
C         16.70700       16.23400        5.28000
H         17.27700       16.79300        4.76700
C         15.74000       16.79000        6.10000
H         15.64800       17.73400        6.14800
C         14.90400       15.97600        6.85300
H         14.24600       16.36000        7.42000
P         13.43800       10.69100        9.13400
P         13.95600       13.45500        7.67600
C         17.24100       14.59300        9.22900
C         18.03400       15.78000        9.06800
C         18.90200       15.89100        7.97100
C         19.40700       17.17700        7.74800
H         19.80600       17.38500        6.91200
C         19.33400       18.14500        8.72600
H         19.70300       19.00200        8.55300
C         18.73600       17.90300        9.96000
C         17.96800       16.75300       10.06200
H         17.39700       16.62700       10.81100
C         19.47900       14.70600        7.26100
H         19.60700       14.92700        6.30500
H         18.84200       13.95000        7.31600
C         19.10200       18.69800       11.16800
H         18.31400       18.76300       11.76300
H         19.34900       19.61500       10.88900
N         16.55400       13.70400        9.32300
C         22.52600       16.68100        7.88800
C         21.91800       16.23400        9.10900
C         21.22800       15.00100        9.13500
C         20.66900       14.66900       10.37200
H         20.38100       13.77800       10.52900
C         20.52700       15.60900       11.36600
H         20.12100       15.35100       12.18400
C         20.95500       16.92800       11.21800
C         21.78300       17.18800       10.13000
H         22.25600       18.01100       10.07800
C         20.87300       14.26300        7.88800
H         20.84000       13.29400        8.08900
H         21.58600       14.40700        7.21600
C         20.29100       18.06700       11.96100
H         20.96500       18.76900       12.14400
H         19.95800       17.73400       12.83200
N         22.96400       17.05700        6.91400
C         18.29000        9.08500        6.84800
O         16.43900       10.75900        7.32900
O         18.57900       11.05200        8.47400
O         18.37000       11.56100        6.15400
F         19.58100        8.91500        6.60800
F         17.63900        8.67700        5.77200
F         17.97400        8.24400        7.83600
S         17.87100       10.79600        7.25900
C         19.21600       10.66400        6.06300
O         18.37200        9.23300        8.01400
O         18.75000       11.56800        8.39900
O         16.86500       10.86500        7.05500
F         19.09700       11.85200        5.46500
F         18.90600        9.72400        5.17000
F         20.50100       10.48900        6.35000
S         18.18100       10.57700        7.53500
C         14.37000       16.49900       14.10500
O         13.75300       14.33000       12.91500
O         15.37400       15.75400       11.88800
O         15.97500       14.54200       13.81800
F         15.39000       17.29700       14.38600
F         13.94000       16.10300       15.30200
F         13.39600       17.18800       13.53000
S         14.92900       15.12100       13.09300
C         15.66900       15.90900       14.44200
O         14.92200       13.99100       12.92000
O         15.37900       16.11600       11.92000
O         17.19600       14.79300       12.75400
F         16.42500       16.98800       14.51500
F         16.05300       15.07400       15.41500
F         14.42100       16.28200       14.69200
S         15.81200       15.10200       12.84900
Pd        23.77100       18.00100        5.24100
N         15.87300       11.29400       10.89400
C         10.22200       18.67100       14.44200
O         10.96900       20.58900       12.92000
O         10.51200       18.46300       11.92000
O          8.69500       19.78600       12.75400
F          9.46600       17.59200       14.51500
F          9.83900       19.50500       15.41500
F         11.47000       18.29700       14.69200
S         10.07900       19.47800       12.84900
