234
C:\Users\Javier\OneDrive - Universitat de Barcelona\Tesi\4 - Contribucions\Treballs\3-PhD\chapter_1\cif\pc3p\UNEFOJ.pc3p.pdb
B          8.97600        0.01800       12.76500
C          9.33900        1.61100       12.83500
C          9.60400        2.23900       14.06100
H          9.56600        1.72500       14.85900
C          9.92000        3.59300       14.14600
C          9.96000        4.38300       13.00600
H         10.18700        5.30500       13.06000
C          9.66100        3.80100       11.80000
C          9.34700        2.44800       11.70900
H          9.13300        2.08200       10.85900
C         10.22600        4.17100       15.48300
F         11.42400        3.87200       15.90200
F          9.39200        3.79000       16.42000
F         10.14600        5.49800       15.48300
C          9.63300        4.62300       10.54700
F         10.22200        5.79400       10.67800
F          8.40000        4.83700       10.12500
F         10.25200        4.02800        9.53600
C          7.36900       -0.07800       13.09600
C          6.88400       -0.16900       14.40500
H          7.50400       -0.21900       15.12200
C          5.51800       -0.18600       14.69000
C          4.58500       -0.11300       13.67200
H          3.65400       -0.14600       13.86100
C          5.04100        0.01100       12.36500
C          6.40000        0.03900       12.09200
H          6.68500        0.14200       11.19200
C          5.07000       -0.27900       16.10200
F          5.38600        0.74500       16.84500
F          5.70400       -1.34200       16.74700
F          3.81100       -0.61600       16.26200
C          4.05900        0.12400       11.24600
F          2.82700       -0.01200       11.57300
F          4.17600        1.26600       10.59100
F          4.30100       -0.79600       10.29800
C          9.88000       -0.83600       13.84100
C         11.18000       -0.44600       14.18200
H         11.51800        0.37300       13.83700
C         11.99000       -1.20800       15.00200
C         11.55500       -2.40600       15.53100
H         12.11200       -2.92600       16.10100
C         10.28000       -2.82300       15.20000
C          9.46500       -2.05900       14.37800
H          8.59300       -2.37700       14.17100
C         13.35700       -0.68400       15.31000
F         13.31000        0.44700       16.02300
F         14.06500       -0.37400       14.23400
F         14.09000       -1.54400       16.03500
C          9.76700       -4.11000       15.73600
F         10.68600       -4.94900       16.12800
F          9.21000       -4.84100       14.67300
F          8.77900       -4.02400       16.56000
C          9.36800       -0.65100       11.32500
C         10.56500       -0.30400       10.67600
H         11.09700        0.39500       11.03900
C         11.00100       -0.94600        9.52500
C         10.24400       -1.95900        8.94700
H         10.52900       -2.38900        8.14800
C          9.08000       -2.31800        9.56000
C          8.65500       -1.69700       10.73900
H          7.85500       -1.99700       11.15400
C         12.28300       -0.50000        8.88700
F         13.27700       -0.44200        9.77600
F         12.19300        0.78800        8.47300
F         12.68100       -1.19400        7.88200
C          8.25400       -3.47200        9.03800
F          8.56900       -3.77300        7.79900
F          8.42000       -4.55600        9.75400
F          6.98400       -3.19300        9.07500
C          9.23700       15.32000        4.91600
C          8.09100       16.10600        4.94100
C          6.83800       15.50700        5.00400
H          6.05500       16.04400        5.02100
C          6.73100       14.12100        5.04000
H          5.87500       13.71200        5.08200
C          7.87800       13.33500        5.01400
H          7.80400       12.38900        5.03800
C          9.13000       13.93400        4.95100
H          9.91400       13.39700        4.93300
F         10.38600       15.82500        4.84000
F          8.19700       17.39000        4.87300
C          3.62500        4.16900        9.20400
H          3.26500        3.46600        9.73000
C          2.83900        4.83100        8.27700
C          5.03000        4.68100        9.44700
F          1.65400        4.62300        8.20700
F          5.71700        3.91300       10.23400
Rh         5.26100        3.42100        3.54200
P          7.32700        3.56200        4.28300
P          5.77300        1.66700        2.31900
B          3.44400        4.60600        3.89700
H          4.48200        4.89100        4.34100
H          3.53900        3.61600        3.29000
H          2.67800        4.46100        4.76200
N          2.94200        5.77100        2.93500
C          3.99900        6.18500        1.97200
H          4.31400        5.40000        1.47700
H          4.74800        6.58400        2.46200
H          3.63100        6.84100        1.34500
C          2.54500        6.94600        3.77800
H          3.33700        7.30500        4.22900
H          1.88800        6.66100        4.44600
H          2.15000        7.63800        3.20800
C          1.74400        5.30100        2.17900
H          1.40600        6.02900        1.61600
H          1.04600        5.02700        2.81000
H          1.99100        4.54100        1.61400
C          8.71200        3.05700        3.20300
H          8.78600        3.70400        2.45900
H          9.55300        3.10000        3.72400
C          8.56700        1.65300        2.62000
H          8.38400        1.01400        3.35400
H          9.42200        1.38800        2.19800
C          7.44900        1.55400        1.58400
H          7.53000        0.69400        1.10200
H          7.55900        2.28100        0.92200
C          7.68900        5.32700        4.58900
C          7.64000        6.19400        3.52400
H          7.48600        5.84400        2.65400
C          7.80900        7.56000        3.67800
H          7.77400        8.13500        2.92200
C          8.02300        8.06900        4.91800
H          8.11100        9.00800        5.03500
C          8.11200        7.24800        5.98600
H          8.29100        7.61200        6.84400
C          7.94400        5.85400        5.84500
H          8.00500        5.28300        6.60300
C          7.61000        2.73700        5.88800
C          6.50100        2.58100        6.70800
H          5.67000        2.97400        6.46600
C          6.60300        1.84800        7.88500
H          5.84400        1.74000        8.44600
C          7.81800        1.27100        8.23900
H          7.88800        0.76800        9.04500
C          8.92800        1.42700        7.41900
H          9.75800        1.03400        7.66100
C          8.82500        2.16100        6.24400
H          9.58400        2.26900        5.68200
C          4.66000        1.61000        0.87000
C          4.94700        2.35200       -0.23900
H          5.74100        2.87500       -0.26800
C          4.07700        2.34500       -1.32800
H          4.29800        2.84400       -2.10400
C          2.92300        1.63900       -1.29900
H          2.33100        1.64900       -2.04200
C          2.62000        0.91000       -0.18100
H          1.81100        0.41400       -0.14800
C          3.48600        0.88700        0.89900
H          3.27000        0.36800        1.66700
C          5.62200        0.01600        3.15600
C          5.67800       -0.06100        4.54100
H          5.74100        0.73200        5.06000
C          5.64100       -1.30100        5.17000
H          5.67800       -1.35400        6.11800
C          5.54900       -2.46300        4.41200
H          5.52200       -3.31000        4.84100
C          5.49300       -2.38400        3.02500
H          5.42900       -3.17800        2.50800
C          5.53000       -1.14500        2.39700
H          5.49300       -1.09200        1.45000
B          3.44400        4.60600        3.89700
H          4.49200        4.62800        4.40500
H          3.43500        3.79700        3.05900
H          2.63200        4.35000        4.69200
N          3.13200        6.03500        3.25700
C          4.18000        6.40500        2.26200
H          4.25300        5.69800        1.58700
H          5.04100        6.51100        2.71800
H          3.93500        7.24800        1.82600
C          3.09900        7.07500        4.33300
H          4.01700        7.33600        4.56300
H          2.65500        6.71200        5.12600
H          2.60700        7.86100        4.01200
C          1.80300        5.99600        2.57900
H          1.49700        6.91100        2.40600
H          1.15600        5.53800        3.15700
H          1.88300        5.51200        1.73100
C          7.55400        2.50300        5.75700
C          6.57400        1.62400        6.20800
H          5.73300        1.58700        5.76900
C          6.82500        0.80400        7.30000
H          6.15600        0.20500        7.60700
C          8.05700        0.85800        7.94300
H          8.22800        0.29700        8.68900
C          9.03600        1.73500        7.49300
H          9.87800        1.77200        7.93200
C          8.78600        2.55600        6.40000
H          9.45700        3.15500        6.09300
C          5.39800        0.03800        2.94400
C          4.41400       -0.08200        3.91700
H          3.90900        0.68100        4.18000
C          4.16600       -1.31400        4.50700
H          3.49300       -1.39700        5.17400
C          4.90300       -2.42800        4.12400
H          4.73500       -3.27200        4.52800
C          5.88900       -2.30900        3.15100
H          6.39200       -3.07000        2.88900
C          6.13600       -1.07500        2.56100
H          6.80800       -0.99400        1.89600
F          9.16000        4.60900       16.11900
F         11.07000        5.16300       15.49200
F         10.76300        3.28300       16.32300
F          4.94900       -1.45100       16.59900
F          3.84100        0.33400       16.22400
F          5.81200        0.46500       16.92600
F          4.52400       -0.00900       10.06200
F          3.07900       -0.76200       11.36300
F          3.42900        1.29800       11.28200
F          8.49800       -4.02300       16.14100
F         10.38300       -4.41400       16.94700
F          9.91000       -5.14100       15.01500
F         12.06800        0.30100        7.85100
F         12.90100       -1.56300        8.32400
F         13.13700        0.05800        9.67200
C          8.16500       -3.30400        8.85200
F          7.32100       -3.88600        9.66400
F          7.43700       -2.78900        7.88800
F          8.85000       -4.28300        8.28000
H         10.09300       15.72900        4.87300
H          8.16400       17.05300        4.91800
F          5.79100       16.21400        5.02800
F          5.58900       13.53300        5.07700
C          5.49100        5.56500        8.59900
C          4.96400        4.53500        9.36700
H          1.92500        4.58000        8.16600
H          2.82600        6.31000        6.87600
C          4.70600        6.22600        7.67100
H          5.06700        6.92800        7.14700
C          4.77200        6.37200        7.75300
H          5.13200        7.07400        7.22700
C          5.55800        5.70900        8.68000
C          3.36600        5.85900        7.51000
F          6.74300        5.91700        8.75000
F          2.68000        6.62700        6.72300
