157
C:\Users\Javier\OneDrive - Universitat de Barcelona\Tesi\4 - Contribucions\Treballs\3-PhD\chapter_1\cif\pc3p\USIMOB.pc3p.pdb
Rh         8.53900        2.95600        4.85600
P          7.68700        3.15500        7.08300
P          9.89100        4.94000        4.89400
C          7.70400        2.02400        2.33900
H          7.30900        2.47200        1.56300
C          9.08800        2.49400        2.78900
H          9.66300        3.07000        2.24400
C          7.43300        1.10600        4.47200
H          6.89500        0.65100        5.15300
C          6.93700        2.10800        3.66000
H          6.01100        2.42300        3.71600
C          8.38500        1.73800        8.15300
C         11.74400        4.77100        4.55800
C          5.80800        3.32200        7.27700
C          9.88800        5.86400        6.49400
H         10.73500        6.33100        6.56800
H          9.19200        6.53700        6.44600
C          7.93300        0.50200        2.23500
H          7.11000       -0.00000        2.12900
H          8.56800        0.26000        1.54300
C          9.57700        1.50500        3.61900
H         10.53500        1.32100        3.71300
C          8.24300        4.64700        8.00600
H          7.66600        5.38900        7.76300
H          8.12000        4.48300        8.95400
C          8.52200        0.40300        3.65700
H          8.81000       -0.48200        3.96200
C          9.09500        6.22500        3.73900
C          5.39900        4.55900        6.46500
H          5.77000        5.34500        6.87000
H          4.44200        4.62800        6.44800
H          5.73000        4.47500        5.56700
C          9.48500        7.67900        4.04200
H          9.23200        7.89700        4.94200
H          9.03200        8.26500        3.43100
H         10.43400        7.78300        3.94200
C          5.04100        2.13400        6.67500
H          5.26000        2.05000        5.74500
H          4.09700        2.28200        6.76900
H          5.28600        1.32800        7.13600
C         12.03900        4.01900        3.25800
H         11.67400        3.13300        3.31000
H         12.98900        3.96700        3.12700
H         11.64000        4.48700        2.52000
C          9.68100        5.07100        7.78000
H         10.24000        4.27900        7.75400
H          9.97000        5.61100        8.53200
C         12.49100        6.11500        4.48900
H         12.21900        6.59300        3.70200
H         13.43700        5.95500        4.45600
H         12.28200        6.63700        5.26800
C         12.29700        3.93600        5.72000
H         12.16100        4.40700        6.54500
H         13.23700        3.78700        5.58800
H         11.84100        3.09200        5.75300
C          5.36200        3.50700        8.73200
H          5.60500        2.73100        9.24200
H          4.41100        3.62600        8.76300
H          5.79400        4.28100        9.10300
C          7.58300        6.10000        3.93800
H          7.30700        5.20200        3.74400
H          7.13100        6.70800        3.34900
H          7.36200        6.31300        4.84800
C          8.60600        2.13700        9.61000
H          9.18100        2.90600        9.64700
H          9.01500        1.40900       10.08300
H          7.76300        2.35000       10.01500
C          7.52300        0.47400        8.13400
H          6.67600        0.65900        8.54500
H          7.96900       -0.22400        8.62000
H          7.38500        0.19500        7.22700
C          9.39500        5.97500        2.25000
H         10.34100        6.03900        2.09900
H          8.94200        6.63400        1.71800
H          9.08900        5.10000        2.00400
C          9.75600        1.36300        7.55600
H          9.63700        1.03900        6.66100
H         10.16200        0.67800        8.09300
H         10.32300        2.13800        7.54500
F         18.18500        8.61000       11.15700
F         10.25400       10.63300        4.85300
F         11.68500       11.78100        5.96100
F         16.09700        5.79000        7.93700
F         16.94600        9.24400       12.78800
F         10.35100       12.98200       14.48200
F         17.31400       10.57400       11.15700
F         12.12200        9.77900        5.39100
F          9.44700        4.71400       13.73800
F         10.65800        4.47700       12.00500
F         11.63100        7.75800       16.73000
F         13.23500        8.78100       15.89500
F         14.47400        6.72400        6.96200
F         10.48800       14.94000       13.68800
F         14.12500        5.22900        8.43800
C         12.04900       11.20600       11.12100
F          6.96700        8.41100        9.73100
C         15.86100        8.78100       10.75800
C         12.84800       12.09700       10.39400
H         13.44700       11.75600        9.77000
F          6.94100        8.15100        7.62100
F          8.96800       13.56400       13.00200
C         11.19200       11.79200       12.06100
H         10.62700       11.24300       12.55600
C         14.63700        9.39300       11.01000
H         14.59900       10.08800       11.62700
F          8.80400        5.48700       11.85000
F         11.38000        9.76600       16.12600
C         10.87000        6.99700       14.22900
H         10.64000        6.45500       14.95000
C         11.52300        8.68300       12.02100
C         10.88400        7.45100       11.85300
H         10.67200        7.16900       10.99300
C         15.96800        7.74700        9.84200
H         16.78700        7.34000        9.67300
C         11.86200        9.01400       13.34300
H         12.31800        9.80900       13.50500
C         11.15600       13.16600       12.28000
C          9.60400        9.25500        9.57200
H          9.25300        8.99400       10.39200
C         10.97000        9.55300        9.48200
C         13.59200        7.95000        9.44500
H         12.83600        7.65000        8.99300
C         13.45900        8.99600       10.36200
C         10.57100       10.08000        7.12800
C         10.55500        6.63200       12.93000
C         11.53700        8.19000       14.41900
C         12.77600       13.47300       10.57300
C          8.75700        9.33600        8.47200
C         11.41700        9.95900        8.22100
H         12.31900       10.15700        8.11000
C         14.82100        7.33800        9.18400
C          9.22600        9.76300        7.23600
H          8.65600        9.83600        6.50500
C         11.93200       14.02300       11.52100
H         11.88700       14.94300       11.64500
C         11.92500        8.64300       15.79300
C         11.14800       10.57300        5.84000
B         11.99600        9.61000       10.75700
C         14.87400        6.27300        8.13800
C         17.07000        9.29400       11.46100
C         10.26600       13.70500       13.35700
C          9.86300        5.33600       12.64800
C         13.60500       14.36600        9.69300
C          7.31300        8.96800        8.61200
F          6.51900       10.01100        8.39300
F         13.34200       15.64500        9.88600
F         13.30500       14.20800        8.43000
F         14.86000       14.09100        9.72200
F         13.08000       14.64400        8.56600
F         14.82000       13.81200        9.41300
F         14.03500       15.41800       10.31500
F          6.60800        9.89800        9.22400
F          6.70700        8.60500        7.54900
F          7.21000        7.91600        9.45400
F         10.77100       14.85100       13.86300
F         10.12700       12.93100       14.38700
F          9.12200       14.12900       12.91100
