208
C:\Users\Javier\OneDrive - Universitat de Barcelona\Tesi\4 - Contribucions\Treballs\3-PhD\chapter_1\cif\pc3p\VABPEW.pc3p.pdb
Rh         8.31900        3.35700        0.31400
C          9.65200        4.98600       -0.85400
C         10.33500        4.52200        0.29200
H         10.64800        5.15200        0.93200
C         10.56700        3.14300        0.51200
H         10.99000        2.86500        1.31800
C         10.19000        2.18300       -0.42600
H         10.41900        1.27000       -0.30200
C          9.47300        2.58400       -1.54400
H          9.18600        1.94600       -2.18700
C          9.17700        3.96600       -1.71400
H          8.63000        4.21800       -2.44900
B          9.41200        6.55100       -1.14700
H          9.32400        7.03800       -0.28900
H          8.56700        6.66600       -1.65100
N         10.65200        7.17900       -2.00800
C         10.33100        8.60400       -2.28500
H         10.16200        9.07200       -1.44100
H          9.53300        8.65500       -2.85100
H         11.08500        9.02500       -2.74600
C         10.83200        6.48100       -3.30200
H         11.55300        6.91200       -3.80900
H          9.99900        6.52700       -3.81700
H         11.06300        5.54200       -3.13900
C         11.92000        7.12400       -1.24600
H         12.15000        6.19000       -1.06000
H         11.81500        7.60900       -0.40200
H         12.63500        7.53800       -1.77400
P          6.16400        3.61800       -0.21400
C          4.77500        3.33700        0.89000
H          4.01300        3.90000        0.60100
H          4.49400        2.39000        0.81900
C          5.10000        3.64900        2.32600
H          4.26200        3.64700        2.85600
H          5.49000        4.55600        2.38100
C          6.07900        2.64500        2.93500
H          5.75400        1.73600        2.71400
H          6.03300        2.74100        3.91900
P          7.89100        2.74700        2.42700
C          5.87700        5.40100       -0.72200
H          6.52600        5.57400       -1.46200
C          4.48100        5.66800       -1.33300
H          3.79400        5.55500       -0.64300
H          4.31500        5.03500       -2.06300
H          4.44600        6.58500       -1.68000
C          6.19700        6.45300        0.36000
H          6.20200        7.34600       -0.04700
H          7.07700        6.26600        0.74800
H          5.51500        6.41800        1.06000
C          5.53000        2.48200       -1.57200
H          4.54100        2.61000       -1.63300
C          6.11900        2.78400       -2.96600
H          7.07500        2.56800       -2.97100
H          5.99800        3.73500       -3.17400
H          5.65800        2.24100       -3.64100
C          5.78400        1.01100       -1.22100
H          5.42200        0.43800       -1.92700
H          5.34400        0.79800       -0.37000
H          6.74800        0.85700       -1.13400
C          8.45300        1.03900        2.84400
H          9.42700        0.96000        2.62500
C          7.69100       -0.01900        2.05000
H          7.95600       -0.91100        2.35500
H          7.89800        0.07500        1.09700
H          6.72800        0.10000        2.18900
C          8.25700        0.62600        4.20500
H          7.29600        0.57500        4.39700
H          8.67500        1.27400        4.80900
H          8.66300       -0.25600        4.34200
C          8.50400        3.80800        3.75400
H          8.04900        3.59000        4.61700
C          8.50900        5.33400        3.52000
H          9.10000        5.76400        4.17400
H          7.60100        5.68300        3.62200
H          8.83100        5.52300        2.61400
C         10.03400        3.67900        3.90600
H         10.47700        4.20500        3.20800
H         10.29300        2.73700        3.81900
H         10.30300        4.01300        4.78800
C          4.99400        3.58100        1.31500
H          4.22900        4.17300        1.10500
H          4.63200        2.66000        1.37800
C          5.48200        3.96400        2.71900
H          5.97500        4.82300        2.66200
H          4.69700        4.10500        3.30500
C          6.38800        2.91800        3.35500
H          5.91800        2.04800        3.38400
H          6.60200        3.18400        4.28400
C          5.86000        5.17200       -1.13400
H          6.57700        5.28100       -1.82200
C          4.49400        5.30400       -1.83000
H          3.77900        5.17200       -1.17100
H          4.41600        4.62500       -2.53300
H          4.41300        6.19600       -2.22600
C          6.03600        6.26200       -0.06800
H          6.03800        7.14300       -0.49900
H          6.88600        6.12700        0.40200
H          5.29900        6.21300        0.57500
C          5.35400        2.30000       -1.19400
H          4.37000        2.48200       -1.22100
C          5.92000        2.46100       -2.62500
H          6.89600        2.36900       -2.60100
H          5.68100        3.34000       -2.97700
H          5.54500        1.76200       -3.20500
C          5.57000        0.89400       -0.65100
H          5.20800        0.24000       -1.28400
H          5.11200        0.80200        0.21000
H          6.52900        0.73500       -0.53000
H          8.01600        0.75700        3.69900
C          7.97800        0.09800        1.71100
H          8.22700        0.47900        0.84500
H          7.00500        0.00000        1.75900
H          8.40100       -0.78000        1.81600
C          9.95600        0.66500        2.91400
H         10.05900       -0.19200        3.38100
H         10.44400        1.36200        3.39900
H         10.31600        0.58600        2.00500
C          9.09800        3.74800        3.58600
H          9.97800        3.93600        3.14700
C          8.13900        5.08400        3.66400
H          7.20600        4.81000        3.78800
H          8.22000        5.59500        2.83200
H          8.41900        5.64400        4.42000
C          9.25900        3.29000        5.04800
H          8.39100        3.33700        5.50200
H          9.89800        3.87200        5.50700
H          9.58600        2.36500        5.06600
B         14.42100        3.61600        6.52500
C         14.04200        3.61900        4.93100
C         13.95600        4.81200        4.20700
H         13.98900        5.63800        4.67800
C         13.82200        4.83200        2.82000
C         13.76000        3.65600        2.09200
H         13.65700        3.66700        1.14700
C         13.85700        2.46100        2.78900
C         14.00000        2.44500        4.16700
H         14.07200        1.60800        4.60900
C         13.78300        6.14800        2.11200
F         14.64900        7.02700        2.62600
F         12.58000        6.73200        2.18800
F         14.07300        6.05100        0.81200
C         13.86600        1.17500        2.03900
F         14.41200        1.25900        0.86400
F         12.60500        0.80800        1.75300
F         14.33600        0.18400        2.64400
C         16.02600        3.95500        6.51000
C         16.52600        5.23800        6.73300
H         15.92900        5.92200        7.01100
C         17.87000        5.54900        6.56000
C         18.76800        4.59500        6.12400
H         19.68300        4.81100        5.99000
C         18.30000        3.32100        5.88600
C         16.95800        3.00100        6.07300
H         16.66600        2.11400        5.89800
C         18.31800        6.94800        6.85800
F         17.52900        7.84900        6.29700
F         18.30000        7.19100        8.17300
F         19.54800        7.20000        6.46400
C         19.22900        2.26600        5.36700
F         18.98100        1.07500        5.75100
F         19.32500        2.30500        4.06100
F         20.50200        2.51900        5.78000
C         13.59100        4.71000        7.41400
C         14.07100        5.05200        8.69000
H         14.88200        4.66500        8.99600
C         13.39400        5.93800        9.51800
C         12.18900        6.50000        9.13500
H         11.72700        7.10500        9.70200
C         11.68100        6.14900        7.89500
C         12.37100        5.27600        7.05600
H         11.99600        5.05900        6.21100
C         13.96800        6.26300       10.86300
F         13.45800        5.58000       11.82000
F         13.76700        7.51900       11.19000
F         15.24700        6.13000       10.93600
C         10.34500        6.68900        7.49300
F         10.18100        6.79200        6.19400
F          9.36300        5.91200        7.92900
F         10.09000        7.88000        7.99400
C         14.06800        2.17400        7.21400
C         14.85900        1.56800        8.18900
H         15.68200        1.97500        8.43400
C         14.47700        0.38100        8.81500
C         13.29900       -0.25900        8.47400
H         13.05000       -1.07800        8.88500
C         12.48800        0.33100        7.51000
C         12.86000        1.53200        6.91600
H         12.27300        1.93100        6.28400
C         15.36200       -0.18200        9.88800
F         14.92200       -1.26100       10.45500
F         15.63700        0.69100       10.83100
F         16.57000       -0.49800        9.38200
C         11.19900       -0.29800        7.09300
F         10.89800       -1.38600        7.77500
F         10.16900        0.52200        7.22700
F         11.20000       -0.64900        5.81500
F         13.39500        0.16700        2.69300
F         15.14100        0.79100        1.80100
F         13.31000        1.18500        0.91100
F         20.38500        2.65500        4.96400
F         19.42300        1.32300        6.27600
F         18.68600        1.58400        4.34200
F         15.18900        6.66400       10.83100
F         14.03400        5.17400       11.62300
F         13.29200        7.08700       11.55800
F         16.63100       -0.04100        9.68300
F         15.14100       -1.48200       10.06100
F         15.07800        0.35900       11.06400
