100
C:\Users\Javier\OneDrive - Universitat de Barcelona\Tesi\4 - Contribucions\Treballs\3-PhD\chapter_1\cif\pc3p\VETWIC.pc3p.pdb
C          4.47200        6.07900       10.54100
H          3.83000        6.59300       10.06600
C          6.90300        9.53900       11.53400
H          7.19200        9.30800       12.40800
C          6.08900       10.19600        9.02700
H          5.77600       10.40900        8.15600
C          2.22100       11.11700       12.62900
C          1.87900       10.76300       11.32000
H          2.37200       10.08800       10.86700
C          1.19200        7.19800       13.04700
C          5.23200        9.63000        9.94500
H          4.33200        9.46300        9.69100
C          2.59400        7.91800       15.52200
H          1.89800        7.38300       15.98100
H          3.44000        7.79700       16.02100
C          7.41100       10.45700        9.36700
C          8.36700       11.08800        8.39600
H          8.58100       11.99800        8.69200
H          7.95600       11.12100        7.50700
H          9.19000       10.55600        8.35600
C          3.34900       10.33800       15.19000
H          4.17100       10.05000       15.66200
H          3.13500       11.25600       15.49200
C          5.88000        5.82800       12.35900
H          6.23100        6.15400       13.17900
C          0.06500        6.76700       13.74200
H          0.12700        6.56200       14.66700
C          2.87000        4.58100       13.14200
H          2.34500        4.84600       12.39600
C          3.25500        5.52600       14.10000
C          1.06800        7.48900       11.69100
H          1.82800        7.79000       11.20700
C          6.09600       11.59600       14.04400
H          6.12800       10.98700       14.77300
C          4.99800       11.60100       13.19800
C          4.96500       12.50300       12.13600
H          4.21400       12.52600       11.55400
C          7.80400       10.10100       10.66000
H          8.70000       10.25000       10.93800
C          2.19400        9.40200       15.58600
H          1.90300        9.61900       16.50700
H          1.42800        9.55800       14.98000
C          0.82800       11.38900       10.68800
H          0.60800       11.15300        9.79400
C         -0.13300        7.35000       11.04000
H         -0.20000        7.55000       10.11300
C          6.03000       13.36900       11.92800
H          6.01000       13.97500       11.19600
C         -1.24400        6.91800       11.73900
H         -2.07600        6.81600       11.29100
C          1.47800       12.09600       13.28800
H          1.70000       12.34200       14.17800
C          7.10700       13.35600       12.77200
H          7.82900       13.95700       12.62600
C          0.09400       12.35500       11.33900
H         -0.63100       12.78100       10.89600
C          4.02000        5.12300       15.18600
H          4.30000        5.76000       15.83300
C          7.14900       12.47600       13.83300
H          7.89700       12.47300       14.41900
C         -1.14600        6.63700       13.08300
H         -1.91500        6.35100       13.56200
C          5.81900        4.10800       10.67800
C          4.87500        4.87500       10.02400
H          4.50100        4.56600        9.20800
C          6.32700        4.62300       11.87300
H          6.98800        4.13800       12.35200
C          0.41500       12.70500       12.64300
H         -0.09700       13.36800       13.09500
C          4.37400        3.78800       15.32300
H          4.88400        3.51100       16.07500
C          3.25500        3.25700       13.28500
H          3.00700        2.61900       12.62600
C          3.99300        2.86100       14.37500
H          4.24000        1.95100       14.47600
C          6.22900        2.75500       10.18000
H          6.56800        2.83300        9.26300
H          5.45600        2.15300       10.19200
H          6.93300        2.39200       10.75800
N          4.95900        6.55900       11.70500
N          5.62900        9.30600       11.19200
P          3.67600       10.36700       13.40300
P          2.81200        7.26800       13.84200
Pd         4.30000        8.37200       12.52300
C          8.20700        8.83700       16.40800
F          7.88200       10.11200       16.58000
F          9.18600        8.79400       15.56400
F          8.67400        8.41100       17.58600
O          5.84100        8.04600       16.96400
O          7.29700        6.51400       15.77100
O          6.39800        8.43400       14.63700
S          6.77500        7.84100       15.88700
C          3.38900        7.25600        6.85100
F          3.55600        7.38300        5.53100
F          4.61800        7.22700        7.39800
F          2.83300        6.06700        7.06500
O          3.16100        9.76600        7.22700
O          2.35700        8.27600        8.94800
O          1.13800        8.48300        6.86300
S          2.39000        8.59700        7.54400
