129
C:\Users\Javier\OneDrive - Universitat de Barcelona\Tesi\4 - Contribucions\Treballs\3-PhD\chapter_1\cif\pc3p\VETWUO.pc3p.pdb
C          9.54800       -1.97300        1.32800
H         10.23200       -2.33900        0.71400
H          9.33600       -2.67300        1.99400
C          8.29700       -1.66800        0.53200
H          7.66500       -1.16600        1.10500
H          7.86100       -2.52000        0.27900
C          8.56700       -0.86000       -0.73000
H          7.76800       -0.90600       -1.31200
H          9.32000       -1.27700       -1.21900
C         11.66200       -1.17600        3.14200
C         12.41500       -2.24300        2.67500
H         12.19100       -2.64400        1.84300
C         13.49400       -2.73600        3.40300
H         13.99400       -3.48000        3.08500
C         13.81900       -2.12900        4.59500
H         14.56900       -2.43600        5.09000
C         13.06300       -1.06400        5.08200
H         13.29000       -0.65100        5.90700
C         11.97800       -0.61400        4.35300
H         11.44200        0.09400        4.69600
C          9.02000       -0.07300        3.44400
C          8.31500       -1.07400        4.09800
H          8.50300       -1.99000        3.92600
C          7.30700       -0.70600        5.02100
H          6.82100       -1.37400        5.49100
C          7.03800        0.62900        5.23400
H          6.30900        0.87500        5.79200
C          7.80300        1.61100        4.65800
H          7.65800        2.52500        4.87300
C          8.79700        1.24600        3.74900
H          9.32600        1.91900        3.33700
C          9.17300        1.60500       -2.07700
C          9.69500        0.86100       -3.12100
H          9.91100       -0.05600       -2.99600
C          9.90100        1.47000       -4.36000
H         10.25000        0.95700       -5.07800
C          9.61500        2.77300       -4.56000
H          9.76900        3.16900       -5.41000
C          9.09700        3.53400       -3.52700
H          8.89100        4.45100       -3.67300
C          8.87500        2.96800       -2.27500
H          8.52900        3.49400       -1.56500
C          7.45200        1.64200        0.22000
C          6.20200        1.27500       -0.29800
H          6.14600        0.61500       -0.98000
C          5.06500        1.86400        0.17200
H          4.22200        1.57500       -0.15900
C          5.10800        2.86000        1.10900
H          4.30800        3.26200        1.42300
C          6.33800        3.27600        1.59500
H          6.38100        3.97900        2.23300
C          7.51400        2.66700        1.15200
H          8.35500        2.95600        1.48800
C         12.02800        2.76600       -1.44900
H         12.28000        1.89800       -1.74300
C         12.35700        3.84800       -2.22500
H         12.83000        3.71600       -3.03700
C         12.00200        5.15100       -1.83100
C         11.32900        5.26200       -0.60700
H         11.07300        6.11700       -0.28400
C         11.03900        4.14200        0.12800
H         10.59700        4.25400        0.96100
C         12.32100        6.33800       -2.65500
C         12.21100        6.25000       -4.04900
H         11.92800        5.43900       -4.45500
C         12.50100        7.32600       -4.80900
H         12.43100        7.26700       -5.75500
C         12.92600        8.56900       -4.19500
H         13.07500        9.34500       -4.72300
C         13.09500        8.59900       -2.90800
H         13.45200        9.38200       -2.50700
C         12.76200        7.49200       -2.08700
H         12.84200        7.55500       -1.14300
C         13.67900        0.96500        1.87900
H         13.76000        0.31100        1.19500
C         14.75900        1.23700        2.68700
H         15.57100        0.76100        2.55300
C         14.69100        2.17500        3.68200
C         13.48200        2.86200        3.80300
H         13.39100        3.53700        4.46400
C         12.42400        2.57600        2.98200
H         11.61500        3.06600        3.07600
C         15.80700        2.43800        4.62200
C         16.71300        1.43600        4.95900
H         16.63000        0.57000        4.57700
C         17.75000        1.70700        5.86400
H         18.36000        1.02000        6.10700
C         17.88400        2.96800        6.40000
H         18.59500        3.14400        7.00900
C         17.00200        3.98500        6.06800
H         17.10100        4.85000        6.44900
C         15.97200        3.72400        5.17300
H         15.37300        4.42100        4.92900
N         11.34800        2.88800       -0.26700
N         12.50700        1.61400        2.04600
P         10.25200       -0.53200        2.19700
P          8.96500        0.88100       -0.42100
Pd        10.81100        1.22500        0.86300
C          8.45900        6.08200        4.66300
F          8.48100        5.32300        5.78000
F          7.30300        5.81900        4.04100
F          8.43700        7.34300        5.03500
O          9.70900        6.52700        2.45800
O          9.66900        4.28200        3.32500
O         11.02600        5.97500        4.41300
S          9.88100        5.68100        3.59200
C         13.85000       -2.56600       -1.65200
F         13.98400       -3.22900       -2.79700
F         13.55500       -3.49500       -0.72400
F         15.00100       -2.03400       -1.36200
O         11.38800       -2.07900       -2.21100
O         13.02400       -0.38800       -2.66000
O         12.40600       -0.93700       -0.36700
S         12.55500       -1.34800       -1.70900
C         10.39400       10.46300        5.09600
H         10.00400        9.77700        5.69400
H         11.36500       10.50300        5.28300
C         10.20700       10.04900        3.74300
H         10.45300       10.78100        3.13900
H          9.26900        9.80700        3.60200
H         10.77400        9.27100        3.55800
C          9.84700       12.13100        6.76200
H          9.12100       11.65500        7.23800
H         10.69900       11.84000        7.17400
C          9.69300       13.53600        7.03800
H          9.95100       13.71700        7.96700
H          8.75700       13.79600        6.90100
H         10.26900       14.05300        6.43400
O          9.84400       11.65900        5.39600
