126
C:\Users\Javier\OneDrive - Universitat de Barcelona\Tesi\4 - Contribucions\Treballs\3-PhD\chapter_1\cif\pc3p\VETWOI.pc3p.pdb
C          2.22400       11.51400        4.36200
H          1.49800       11.47900        3.75200
C          2.84200       12.73200        4.59700
H          2.52600       13.51200        4.15800
C          3.91300       12.82200        5.46000
C          4.30200       11.64100        6.09600
H          5.02400       11.65300        6.71400
C          3.64600       10.46200        5.83700
H          3.92800        9.67400        6.28700
C          4.61800       14.13900        5.79700
C          4.38700       14.43500        7.25600
H          4.69300       13.67600        7.79400
H          3.43100       14.58400        7.41200
H          4.88800       15.23800        7.50900
C          4.09600       15.30300        4.94000
H          3.13300       15.40900        5.08700
H          4.26500       15.11300        3.99500
H          4.55800       16.12800        5.19500
C          6.13100       13.98000        5.52200
H          6.26600       13.70400        4.59100
H          6.50300       13.30100        6.12200
H          6.58300       14.83600        5.67700
C          0.37100        8.73700        7.34200
H          1.13900        8.23400        7.58700
C         -0.57700        9.02200        8.30900
H         -0.45900        8.70500        9.19600
C         -1.71500        9.77600        7.98400
C         -1.78500       10.23500        6.67200
H         -2.51200       10.79100        6.41100
C         -0.81700        9.90200        5.73700
H         -0.90300       10.20900        4.84200
C         -2.76900       10.05600        9.04000
C         -3.95400       10.82600        8.46800
H         -4.41100       10.27200        7.80000
H         -3.63500       11.65000        8.04400
H         -4.57800       11.05000        9.18800
C         -2.13000       10.87200       10.17500
H         -1.74900       11.69700        9.80800
H         -1.42100       10.34400       10.59700
H         -2.81300       11.09500       10.84200
C         -3.29300        8.72700        9.62200
H         -3.90400        8.91200       10.36400
H         -2.53700        8.19300        9.94700
H         -3.76700        8.23000        8.92300
C          3.63400        6.30200        2.86500
H          4.25900        6.20000        2.10500
H          4.12200        6.05300        3.69000
C          2.47300        5.32900        2.67500
H          1.89300        5.65600        1.94200
H          2.83100        4.44600        2.40600
C          1.63600        5.16500        3.94100
H          2.24400        5.02300        4.70900
H          1.07600        4.35300        3.84900
C          2.56200        8.54500        1.33400
C          1.44700        9.37000        1.21600
H          0.95500        9.61100        1.99300
C          1.05100        9.83900       -0.01200
H          0.31000       10.43100       -0.07400
C          1.71400        9.46100       -1.14200
H          1.42000        9.76900       -1.99300
C          2.82000        8.62800       -1.04700
H          3.29100        8.37700       -1.83400
C          3.23600        8.16400        0.18300
H          3.98500        7.58300        0.24100
C          4.72300        8.94500        3.21500
C          5.66800        8.44400        4.09700
H          5.53100        7.60300        4.51500
C          6.81900        9.17500        4.36800
H          7.46700        8.83900        4.97600
C          7.01300       10.40400        3.74200
H          7.79600       10.90800        3.92900
C          6.08500       10.89200        2.86100
H          6.23500       11.72800        2.43600
C          4.92600       10.17600        2.58400
H          4.28100       10.51900        1.97600
C         -0.33400        6.13100        5.80500
C         -1.70400        6.44200        5.93900
H         -2.18100        6.80000        5.19900
C         -2.35500        6.23100        7.13500
H         -3.27300        6.45900        7.22800
C         -1.65200        5.68000        8.20900
H         -2.09700        5.52800        9.03400
C         -0.33200        5.36000        8.08500
H          0.13300        4.98600        8.82300
C          0.33800        5.57400        6.88900
H          1.25500        5.34000        6.80800
C         -0.71300        6.60800        3.00600
C         -1.27000        7.81100        2.60100
H         -0.93200        8.63100        2.94200
C         -2.32600        7.81700        1.69400
H         -2.70400        8.64500        1.42100
C         -2.82000        6.66100        1.19800
H         -3.53400        6.68200        0.57000
C         -2.29300        5.44800        1.60100
H         -2.64800        4.63600        1.26000
C         -1.24300        5.42400        2.50200
H         -0.88000        4.59100        2.77900
N          2.61400       10.38100        4.97000
N          0.24600        9.14600        6.08000
P          3.14800        8.05100        2.98500
P          0.56000        6.58100        4.29900
Pd         1.64600        8.56000        4.61000
C          4.20600        5.92200        8.78700
F          4.46400        6.88800        9.62400
F          5.05000        4.96100        9.06400
F          2.99700        5.50500        9.09400
O          5.62800        6.90000        6.93500
O          3.26800        7.41800        6.93300
O          3.97000        5.22700        6.34700
S          4.30000        6.43900        7.05900
C         -1.67700       13.28600        1.30800
F         -0.87400       13.04000        0.35100
F         -2.85000       12.61100        1.03900
F         -1.99200       14.58900        1.30000
O         -0.83100       11.39600        2.80500
O         -2.13600       13.13300        3.75800
O          0.08700       13.62900        3.12200
S         -1.06300       12.81400        2.89900
C          0.04000       13.59600        6.80600
H          0.52800       14.45300        6.73000
H         -0.10100       13.24600        5.88900
Cl         1.01600       12.45700        7.71200
Cl        -1.50200       13.88200        7.54600
F         -1.70300       12.40400        0.19100
F         -3.02400       13.75400        1.27400
F         -1.02400       14.40500        0.71400
