118
C:\Users\Javier\OneDrive - Universitat de Barcelona\Tesi\4 - Contribucions\Treballs\3-PhD\chapter_1\cif\pc3p\VETXEZ.pc3p.pdb
C          7.51500        1.38200       17.63400
H          8.33400        1.20000       18.16100
H          7.04400        0.52100       17.50500
C          7.92500        1.92400       16.26800
H          7.11500        2.22600       15.78600
H          8.33300        1.19200       15.74200
C          8.91500        3.08600       16.35200
H          9.26600        3.26500       15.44300
H          9.67800        2.80800       16.91700
C          5.99300        1.54300       20.07400
C          6.92800        0.73900       20.70300
H          7.79300        0.64100       20.32700
C          6.61000        0.07700       21.87700
H          7.25100       -0.48900       22.29100
C          5.37400        0.23700       22.44300
H          5.16500       -0.20700       23.25600
C          4.43700        1.03700       21.83600
H          3.57800        1.13700       22.23100
C          4.73000        1.70100       20.65300
H          4.08000        2.25500       20.24000
C          4.89400        2.66300       17.65700
C          4.08700        3.77400       17.87700
H          4.38200        4.46800       18.45200
C          2.86000        3.86600       17.26000
H          2.30600        4.62100       17.42300
C          2.42600        2.87000       16.40900
H          1.57800        2.94100       15.98700
C          3.22900        1.77100       16.17200
H          2.93600        1.08500       15.58200
C          4.45300        1.67200       16.79400
H          5.00200        0.91400       16.62900
C          7.01200        5.25300       15.84500
C          5.99000        6.08200       16.30500
H          5.89900        6.24300       17.23800
C          5.10700        6.67100       15.42300
H          4.41000        7.22900       15.74500
C          5.24600        6.44300       14.06100
H          4.65600        6.86300       13.44700
C          6.24900        5.60000       13.59800
H          6.33000        5.43200       12.66700
C          7.12100        5.01000       14.47900
H          7.80200        4.43400       14.15300
C          9.66400        5.75100       16.87900
C          9.68300        6.83900       15.99700
H          8.92700        7.03800       15.45900
C         10.82400        7.62000       15.92400
H         10.85400        8.34700       15.31200
C         11.91800        7.35900       16.72500
H         12.68200        7.92100       16.68400
C         11.90200        6.28700       17.58000
H         12.65900        6.10200       18.12500
C         10.79100        5.47800       17.64800
H         10.79400        4.72500       18.22800
C          7.44600        3.64900       21.97100
H          8.27100        3.28200       21.67300
C          7.07900        3.42900       23.26200
H          7.64400        2.92500       23.83600
C          5.86500        3.94700       23.75100
C          5.12600        4.72000       22.83500
H          4.31300        5.12800       23.11100
C          5.56800        4.88700       21.55400
H          5.04100        5.40600       20.95800
C          9.52100        6.25100       20.40500
H          9.99700        5.43200       20.45200
C         10.09000        7.35700       20.97200
H         10.94500        7.29200       21.38300
C          9.41500        8.59900       20.94900
C          8.14700        8.57600       20.33800
H          7.62200        9.36700       20.32000
C          7.65600        7.42600       19.76800
H          6.80700        7.45700       19.34300
C          6.26200        2.82200       25.86000
H          6.30500        1.93200       25.45100
H          5.84100        2.75500       26.74200
H          7.16900        3.18100       25.95800
C          4.19700        4.16800       25.51200
H          4.09700        5.12300       25.31800
H          4.15100        4.02400       26.48200
H          3.47900        3.66700       25.07300
C         11.25700        9.77100       22.05000
H         11.49100        8.89200       22.41600
H         11.29400       10.44200       22.76200
H         11.89100       10.01000       21.34200
C          9.21500       10.99600       21.36700
H          9.16000       11.24100       20.41800
H          9.70300       11.69000       21.85600
H          8.31000       10.91200       21.73500
N          6.71500        4.35100       21.09300
N          8.32700        6.25300       19.78500
N          5.48000        3.70700       25.01700
N          9.91400        9.72300       21.50000
P          6.44100        2.49800       18.59200
P          8.23400        4.63700       17.02100
Pd         7.41800        4.48000       19.13300
C         12.33700        2.07100       19.50600
F         12.78600        3.33600       19.40300
F         13.28800        1.37800       20.08400
F         12.18900        1.63200       18.26600
O          9.86100        2.75200       19.57200
O         11.06100        2.68800       21.64500
O         10.49800        0.63100       20.53000
S         10.76500        2.03100       20.42600
C          2.44500        8.69500       19.76900
F          1.08600        8.68100       19.70700
F          2.75100        8.81000       21.08800
F          2.81500        9.82800       19.11500
O          2.62600        6.19800       19.81900
O          2.64200        7.34000       17.68800
O          4.54200        7.44100       19.12100
S          3.14900        7.28300       19.05400
C         13.35400        4.93100       22.20600
H         12.41400        4.73100       21.97100
H         13.82500        5.20900       21.38300
Cl        14.11400        3.48400       22.85300
Cl        13.39100        6.25100       23.37200
F          1.71000        9.62700       19.10600
F          1.75300        8.85200       20.93000
F          3.40900        9.58600       20.12500
