105
C:\Users\Javier\OneDrive - Universitat de Barcelona\Tesi\4 - Contribucions\Treballs\3-PhD\chapter_1\cif\pc3p\VETXAV.pc3p.pdb
C         10.50700        5.49200       19.34000
H         10.44100        4.54700       19.40200
C         11.76600        6.05500       19.27300
H         12.54400        5.51000       19.28500
C         11.86600        7.42900       19.19000
C         10.69500        8.18600       19.19300
H         10.73500        9.13400       19.16100
C          9.48700        7.54400       19.24200
H          8.69400        8.06700       19.21900
C         14.24300        7.36700       18.97600
H         15.00700        7.98200       18.96400
H         14.22800        6.84800       18.14400
H         14.32600        6.75900       19.74000
C          8.81900        4.52500       16.51800
H          9.16000        3.82200       17.05800
C          9.27200        4.62300       15.22600
H          9.91500        4.01100       14.88900
C          8.76300        5.64400       14.42300
C          7.80900        6.49900       14.97300
H          7.41500        7.18200       14.44300
C          7.44500        6.34900       16.28500
H          6.82900        6.96700       16.65900
C         10.23800        5.13300       12.62400
H         10.40200        5.40900       11.69700
H         10.01300        4.18000       12.64600
H         11.04400        5.29100       13.15800
C          5.45900        5.68300       21.92100
H          5.43000        5.65800       22.91000
H          5.26300        6.61100       21.63400
C          4.38000        4.75100       21.36600
H          3.54000        4.89700       21.87000
H          4.65900        3.81300       21.51200
C          4.10700        4.96000       19.87500
H          3.95600        5.92500       19.71500
H          3.27300        4.48300       19.63700
C          8.25900        6.36200       22.22800
C          9.33800        5.88600       22.95800
H          9.45600        4.95100       23.08000
C         10.24300        6.77800       23.50700
H         10.97500        6.45100       24.01700
C         10.09700        8.12600       23.32600
H         10.73100        8.72800       23.69600
C          9.02400        8.60700       22.60400
H          8.92000        9.54400       22.47900
C          8.10200        7.73600       22.06100
H          7.36100        8.07400       21.57200
C          7.46100        3.59500       22.06300
C          6.90000        3.20300       23.27000
H          6.31000        3.78900       23.73000
C          7.19500        1.97000       23.80100
H          6.79700        1.70300       24.62100
C          8.06500        1.11700       23.15100
H          8.26200        0.26300       23.51900
C          8.64500        1.51400       21.96800
H          9.26200        0.93900       21.52800
C          8.34000        2.74100       21.41500
H          8.73200        3.00000       20.58900
C          5.48900        2.58700       18.87300
C          6.68100        1.92400       18.60800
H          7.46200        2.42400       18.40600
C          6.73900        0.54100       18.63500
H          7.55700        0.09400       18.45200
C          5.60300       -0.18800       18.92900
H          5.63800       -1.13700       18.93900
C          4.41900        0.46100       19.21000
H          3.64400       -0.04400       19.42500
C          4.35200        1.84200       19.18000
H          3.53200        2.28300       19.36800
C          4.82700        4.80200       17.11400
C          4.39400        6.10500       16.85000
H          4.31100        6.73200       17.55900
C          4.08800        6.47500       15.55900
H          3.79500        7.36000       15.37800
C          4.20200        5.57400       14.53600
H          4.00900        5.84400       13.64700
C          4.59600        4.27200       14.78500
H          4.65300        3.64500       14.07400
C          4.90900        3.88500       16.08000
H          5.18000        2.99100       16.25700
N          9.37600        6.20500       19.32200
N          7.92300        5.36400       17.06600
O         13.02100        8.12100       19.09200
O          9.14400        5.89900       13.16800
P          7.13500        5.23100       21.36400
P          5.43300        4.39200       18.77200
Pd         7.48100        5.31200       19.12200
C          4.51800       10.41300       18.42700
F          3.88800        9.77600       17.45600
F          3.61400       11.00800       19.17700
F          5.25600       11.36300       17.86200
O          6.50300        8.79000       18.46000
O          6.10300       10.11600       20.43600
O          4.61600        8.30500       19.86800
S          5.55000        9.28700       19.40700
C         -0.29100        2.81800       22.44600
F         -1.38400        3.55900       22.24800
F          0.47400        3.50000       23.29800
F         -0.63600        1.70900       23.03900
O          1.63400        1.65400       21.18700
O          0.93900        3.82900       20.45200
O         -0.48400        1.89100       20.09800
S          0.55900        2.52500       20.86600
O         -2.67900        2.20000       18.44400
H         -2.03400        2.07900       18.96400
H         -2.34100        1.84200       17.73100
