236
C:\Users\Javier\OneDrive - Universitat de Barcelona\Tesi\4 - Contribucions\Treballs\3-PhD\chapter_1\cif\pc3p\VETYAW.pc3p.pdb
C          5.63100        0.61800        1.28200
H          4.83100        0.04200        1.18700
H          5.85800        0.97900        0.38900
C          6.83500       -0.24400        1.82600
H          6.88700       -1.10600        1.34100
H          6.71800       -0.43100        2.79100
C          8.17100        0.62000        1.57900
H          8.11600        1.03900        0.68400
H          8.94800        0.00700        1.57500
C          3.76600        2.77700        1.70400
C          2.89700        3.41800        2.65800
H          3.07900        3.45500        3.58800
C          1.70600        4.00900        2.04800
H          1.05200        4.35600        2.64200
C          1.46000        4.10000        0.84900
H          0.70800        4.59400        0.54500
C          2.23900        3.51700        0.01500
H          1.94200        3.48200       -0.88500
C          3.59800        2.86800        0.31200
H          4.22600        2.57600       -0.34000
C          4.68300        1.31900        4.04600
C          5.30200        1.68700        5.23700
H          5.98200        2.34900        5.26200
C          4.85800        1.01800        6.41900
H          5.20700        1.26500        7.26800
C          3.94200        0.04000        6.32200
H          3.70500       -0.45600        7.09700
C          3.35300       -0.25200        5.13700
H          2.65000       -0.89100        5.14000
C          3.68500        0.29500        3.95100
H          3.29300        0.02900        3.12900
C         10.15300        2.52100        2.40900
C         10.57700        2.54200        0.96500
H         10.03700        2.17300        0.27500
C         11.80900        3.13700        0.70900
H         12.14400        3.12800       -0.18000
C         12.55700        3.73100        1.67900
H         13.40100        4.11100        1.46100
C         12.09100        3.78600        2.98000
H         12.64500        4.20100        3.63200
C         10.88100        3.27900        3.39700
H         10.54900        3.41700        4.27600
C          8.67800        1.20300        4.49800
C          8.88800       -0.24100        4.59100
H          8.96700       -0.78100        3.81400
C          8.97100       -0.81100        5.92100
H          9.11900       -1.73900        6.05400
C          8.82100        0.07200        7.00200
H          8.93000       -0.30800        7.86600
C          8.54500        1.37600        6.97500
H          8.41700        1.89200        7.76200
C          8.45300        1.94600        5.61500
H          8.23000        2.86300        5.51600
C          8.94600        5.55200        1.73600
H          8.69500        5.10600        0.93500
C          9.82800        6.64700        1.57900
H         10.27100        6.87300        0.76900
C          9.97000        7.40200        2.87200
C          9.37400        6.82400        4.00800
H          9.51000        7.26300        4.84000
C          8.64300        5.73200        4.02000
H          8.28200        5.42300        4.84200
C         11.05300        9.31400        1.91700
C         11.93500       10.56000        2.09500
C         12.85700       10.94900        1.18700
H         12.98900       10.45500        0.38600
C         13.63400       12.12100        1.46500
H         14.26000       12.44700        0.82800
C         13.47200       12.70800        2.55700
H         14.05700       13.43300        2.75100
C         12.46700       12.38200        3.56400
H         12.34500       12.92100        4.33500
C         11.73400       11.29600        3.35100
H         11.09700       11.00500        3.99100
C          5.21400        5.59700        1.22700
H          5.64100        5.20700        0.47300
C          4.28600        6.56300        1.04100
H          4.02800        6.82500        0.16500
C          3.69700        7.18900        2.20400
C          4.11700        6.77100        3.40000
H          3.75000        7.15900        4.18700
C          5.03500        5.82800        3.50700
H          5.34100        5.61300        4.38000
C          1.89800        8.68100        2.85300
C          1.10200        9.80300        2.29300
C          1.57200       10.85600        1.80700
H          2.51600       10.95500        1.82000
C          0.81800       11.89900        1.24400
H          1.24000       12.64100        0.82400
C         -0.52400       11.81200        1.32400
H         -1.05800       12.55000        1.05200
C         -1.11900       10.70000        1.78200
H         -2.06000       10.59700        1.70200
C         -0.32100        9.64100        2.40100
H         -0.71400        8.90000        2.84600
N          8.39800        5.04700        2.90500
N         10.74200        8.45400        2.91700
H         11.10700        8.62600        3.69900
N          5.55300        5.16400        2.50400
N          2.89400        8.21300        1.86000
H          2.96100        8.59400        1.06900
O         10.64800        9.15500        0.74700
O          1.74400        8.24800        3.96000
P          5.24900        2.03000        2.44900
P          8.45500        1.88100        2.77900
Pd         6.91300        3.54500        2.69100
C         -3.49400        0.10100        8.10200
H         -3.30400        0.30700        9.05200
H         -4.26500       -0.51800        8.07900
C         -2.26200       -0.61700        7.49400
H         -2.23200       -1.55300        7.81500
H         -2.34200       -0.63300        6.50600
C         -0.96900        0.10900        7.89500
H         -0.20000       -0.50200        7.78100
H         -1.01900        0.36700        8.85000
C         -5.48700        2.24300        8.24000
C         -6.43100        2.93300        7.48900
H         -6.35400        2.96500        6.54200
C         -7.48800        3.57600        8.12300
H         -8.13300        4.04800        7.61000
C         -7.60100        3.52800        9.50800
H         -8.32300        3.96800        9.94100
C         -6.65600        2.83800       10.25800
H         -6.73300        2.80500       11.20400
C         -5.59900        2.19500        9.62400
H         -4.95300        1.72300       10.13800
C         -4.59200        1.11100        5.68800
C         -4.00400        1.60000        4.54700
H         -3.34600        2.27800        4.64300
C         -4.30700        1.16800        3.26400
H         -3.91800        1.55200        2.48800
C         -5.24200        0.11200        3.20800
H         -5.44600       -0.26800        2.36100
C         -5.87900       -0.39800        4.33200
H         -6.51900       -1.09700        4.26100
C         -5.55000        0.14400        5.54700
H         -6.00600       -0.16500        6.32200
C         -0.52000        1.10700        5.08300
C         -0.27200       -0.31200        4.86300
H         -0.22300       -0.94300        5.57200
C         -0.11000       -0.66700        3.50900
H          0.17400       -1.55600        3.33200
C         -0.30700        0.08200        2.49600
H         -0.29900       -0.27100        1.61300
C         -0.56000        1.59000        2.75700
H         -0.61000        2.22700        2.05500
C         -0.70600        1.93900        4.08500
H         -0.95600        2.83200        4.28700
C          1.00200        2.33600        7.29300
C          1.41300        2.11300        8.55900
H          0.89100        1.56700        9.13500
C          2.62200        2.69200        9.03500
H          2.93900        2.55900        9.92000
C          3.29500        3.45800        8.11400
H          4.13200        3.81400        8.38500
C          2.84500        3.78300        6.73800
H          3.25600        4.42200        6.16800
C          1.68800        2.98100        6.39100
H          1.42200        2.92300        5.48000
C         -0.23000        5.20400        8.13900
H         -0.27900        4.73100        8.96000
C          0.54300        6.35800        8.15500
H          0.93300        6.68600        8.95700
C          0.71500        6.99800        6.95700
C         -0.01100        6.47800        5.81700
H          0.07600        6.89300        4.96600
C         -0.76400        5.46400        5.95900
H         -1.29200        5.17400        5.22600
C          2.04500        9.04900        7.64600
C          2.77800       10.16600        7.17300
C          3.74200       10.77300        7.97000
H          3.97500       10.39100        8.80800
C          4.36400       11.94000        7.54000
H          5.02400       12.35400        8.08500
C          4.02300       12.49900        6.31400
H          4.44900       13.29500        6.02200
C          3.06000       11.89100        5.51800
H          2.82700       12.27400        4.68100
C          2.43700       10.72500        5.94700
H          1.77800       10.31000        5.40200
C         -4.16600        5.22300        8.61500
H         -3.75900        4.93100        9.42200
C         -5.18600        6.13700        8.62900
H         -5.60100        6.33300        9.46000
C         -5.64100        6.78800        7.50700
C         -5.12900        6.26700        6.28000
H         -5.44300        6.63800        5.46500
C         -4.25400        5.30700        6.22400
H         -3.95400        4.98700        5.38200
C         -6.86800        8.73400        6.62500
C         -7.84000        9.79500        7.02100
C         -9.14500        9.47900        7.64300
H         -9.45900        8.58900        7.75000
C         -9.87500       10.58300        8.05600
H        -10.70100       10.42800        8.49900
C         -9.52600       11.74700        7.88900
H        -10.13500       12.42800        8.15100
C         -8.36400       12.13400        7.37000
H         -8.12000       13.05100        7.31500
C         -7.47400       11.06600        6.88400
H         -6.64400       11.28300        6.47600
N         -0.84000        4.72700        7.23400
N          1.41500        8.08600        6.79500
H          1.53100        8.27600        5.94400
N         -3.75100        4.74200        7.40200
N         -6.65700        7.69000        7.58600
H         -7.21500        7.62900        8.26300
O          1.78500        8.85600        8.82000
O         -6.37100        8.68000        5.54300
P         -3.95700        1.63400        7.26100
P         -0.70800        1.65100        6.84300
Pd        -2.31200        3.22300        7.20300
C         -3.36800        6.99800        2.57400
O         -2.74100        4.66100        3.40400
O         -0.94400        6.02400        2.62700
O         -2.52000        5.12100        0.94800
F         -4.66800        6.66500        2.42600
F         -3.03500        7.90300        1.62000
F         -3.12100        7.57500        3.75000
S         -2.27800        5.51300        2.34900
C         -2.20400        3.29900       12.50200
O         -1.91100        3.24300       10.06500
O         -2.07600        1.19000       11.15200
O         -0.02600        2.58300       11.59700
F         -3.55400        3.48600       12.42000
F         -1.83000        4.51700       12.72500
F         -1.91200        2.78200       13.73700
S         -1.59700        2.49300       11.21600
C          5.85200        6.96900        7.32200
O          6.45300        4.57800        6.31200
O          6.42600        4.91600        8.73300
O          8.28100        5.88800        7.41100
F          4.62400        6.71800        7.27400
F          6.25800        7.59200        6.18200
F          6.22500        7.82900        8.32100
S          6.87800        5.39300        7.45700
