198
C:\Users\Javier\OneDrive - Universitat de Barcelona\Tesi\4 - Contribucions\Treballs\3-PhD\chapter_1\cif\pc3p\VOCGAV.pc3p.pdb
Sb         1.40200        4.65200        4.81200
Sb         8.03000        9.91600       -0.40800
Rh        -1.57800       -0.11500        0.64600
Rh         7.58700        6.07200        5.10300
P         -2.09700        2.13400        0.83800
P          0.73000        0.21400        0.49300
P          9.79000        5.61700        5.64700
P          7.24800        3.81400        4.60300
F          0.25500        4.97900        6.16200
F          2.59200        4.32000        3.43300
F          0.90900        2.89200        4.72800
F          2.74300        4.25200        6.00400
F          0.12900        5.11800        3.59600
F          1.91400        6.42900        4.87000
F          9.01100        9.28000       -1.87400
F          6.90000       10.79600       -1.58100
F          6.97000        8.40300       -0.52400
F          9.08700       11.43300       -0.37200
F          7.04700       10.54900        1.01200
F          9.14500        9.00900        0.75600
C         -3.20900       -0.76700        1.94000
C         -3.77800       -0.58800        0.76000
C         -4.15600       -1.66600       -0.19700
C         -3.06800       -2.00500       -1.21200
C         -1.68400       -1.86800       -0.70900
C         -1.26000       -2.32300        0.51600
C         -2.10000       -3.07000        1.55100
C         -2.79400       -2.11000        2.53300
C         -2.96400        2.80200       -0.69900
C         -4.22700        3.45900       -0.17400
C         -4.07000        3.89900        1.25100
C         -3.38300        2.78400        2.00700
C         -3.20000        1.90800       -1.89800
C         -1.89200        1.39300       -2.51100
C         -4.04500        2.57400       -2.98700
C         -2.91700        3.17700        3.42200
C         -2.33300        2.07100        4.20900
C         -4.07300        3.81600        4.18900
C          1.83800       -0.70600        1.68600
C          2.70900       -1.60300        0.80800
C          2.97100       -0.88700       -0.49800
C          1.62100       -0.45200       -0.98900
C          1.23200       -1.39000        2.91000
C          0.39900       -0.39800        3.71300
C          2.28700       -1.96300        3.80100
C          1.66500        0.44500       -2.29100
C          1.82200       -0.44700       -3.45500
C          2.75700        1.47800       -2.30300
C         -0.73900        3.31300        1.08200
C          0.55600        3.05200        0.32100
C          1.31300        1.90300        0.83200
C          7.46600        7.88700        6.33600
C          8.00300        8.25000        5.17300
C          7.27000        8.97900        4.06800
C          6.57600        8.03300        3.07700
C          6.06700        6.76300        3.67100
C          5.39500        6.61200        4.82200
C          5.01500        7.81600        5.74100
C          6.05100        8.09200        6.82300
C         11.11900        6.24900        4.43200
C         12.04000        7.09900        5.31200
C         12.05000        6.57400        6.70100
C         10.58200        6.38100        7.14700
C         10.67800        6.89600        3.13900
C          9.77700        6.01000        2.29300
C         11.92900        7.25900        2.29800
C         10.41300        5.64200        8.48600
C          8.99400        5.74300        9.00100
C         11.34600        6.15800        9.53500
C          6.73200        2.74800        6.02200
C          5.36600        2.22600        5.67900
C          5.30900        1.97400        4.19500
C          5.86100        3.23300        3.48900
C          6.87300        3.26400        7.46600
C          5.84200        4.32000        7.83300
C          6.84200        2.12200        8.47200
C          6.17400        3.00000        1.99600
C          6.60600        4.24000        1.25900
C          4.98200        2.42100        1.31900
C         10.19200        3.84700        5.79500
C         10.05900        3.05400        4.51300
C          8.70400        2.92900        3.87400
H         -3.03000       -0.01200        2.48700
H         -3.96500        0.29900        0.46700
H         -4.95000       -1.41700       -0.65900
H         -4.39100       -2.44900        0.28700
H         -3.17600       -1.46600       -1.98800
H         -3.19700       -2.89000       -1.53400
H         -1.06700       -1.42400       -1.27300
H         -0.35500       -2.17700        0.76000
H         -1.54800       -3.67000        2.03200
H         -2.75400       -3.59300        1.10800
H         -3.55700       -2.54100        2.90400
H         -2.23200       -1.96500        3.28400
H         -2.38500        3.50400       -0.99000
H         -4.95200        2.85200       -0.24100
H         -4.44100        4.21600       -0.71100
H         -4.93000        4.05200        1.63100
H         -3.54000        4.68200        1.28900
H         -4.00000        2.07000        2.10500
H         -3.68600        1.15100       -1.59500
H         -2.08900        0.84200       -3.25500
H         -1.41600        0.89600       -1.85900
H         -1.36600        2.13400       -2.79400
H         -4.15800        1.96700       -3.71300
H         -3.59500        3.35300       -3.30200
H         -4.88900        2.81200       -2.63600
H         -2.24500        3.84500        3.32200
H         -2.07300        2.38800        5.06400
H         -1.57600        1.72200        3.75400
H         -2.98400        1.38300        4.31400
H         -3.78400        4.05700        5.05800
H         -4.78800        3.19300        4.25200
H         -4.36800        4.59100        3.72300
H          2.41100       -0.02400        2.01600
H          2.25200       -2.41900        0.63300
H          3.53600       -1.77200        1.24800
H          3.35800       -1.49000       -1.12000
H          3.51200       -0.12200       -0.33400
H          1.13900       -1.23300       -1.22000
H          0.66400       -2.08900        2.61100
H          0.03600       -0.84200        4.47000
H         -0.30000       -0.06400        3.17000
H          0.95500        0.31500        4.00100
H          1.86700       -2.37700        4.54800
H          2.85600       -1.26800        4.10100
H          2.78500       -2.60900        3.32100
H          0.83200        0.89900       -2.35300
H          1.84300        0.07300       -4.25500
H          1.07500       -1.04200       -3.49900
H          2.62000       -0.94400       -3.38000
H          2.71400        1.97000       -3.11800
H          3.60100        1.04200       -2.24800
H          2.65100        2.06600       -1.57100
H         -0.55800        3.39500        2.00700
H         -1.05100        4.19100        0.88900
H          1.10100        3.83100        0.35400
H          0.36500        2.92200       -0.59900
H          2.22500        1.97900        0.57100
H          1.45500        2.00300        1.76800
H          8.03000        7.44200        6.96100
H          8.91100        8.03600        4.99300
H          7.88500        9.53400        3.59900
H          6.63000        9.56700        4.44900
H          7.16900        7.82800        2.36100
H          5.86000        8.48900        2.64800
H          6.25200        5.98400        3.16300
H          5.12000        5.75300        5.11900
H          4.17500        7.65000        6.14700
H          4.89800        8.59500        5.21100
H          5.95500        8.98200        7.13800
H          5.89200        7.52700        7.57100
H         11.60000        5.46400        4.20200
H         11.73700        7.99800        5.31500
H         12.92300        7.07600        4.95800
H         12.47300        7.20200        7.27500
H         12.49900        5.73600        6.72100
H         10.17900        7.23800        7.22600
H         10.21600        7.69600        3.34200
H          9.53800        6.47300        1.49700
H          8.98900        5.80200        2.78200
H         10.23400        5.21000        2.06700
H         11.65400        7.66400        1.48200
H         12.42400        6.46900        2.10400
H         12.47400        7.86600        2.78200
H         10.61000        4.72500        8.33900
H          8.92400        5.27800        9.82300
H          8.40500        5.35100        8.36200
H          8.76800        6.65400        9.12300
H         11.20900        5.67300       10.34300
H         11.17600        7.07800        9.68500
H         12.24300        6.03800        9.24500
H          7.32500        2.00500        5.96100
H          4.71300        2.87300        5.91100
H          5.21000        1.41600        6.14400
H          4.40800        1.83000        3.93400
H          5.85900        1.22600        3.98200
H          5.20000        3.91600        3.54800
H          7.72600        3.67600        7.53400
H          5.97700        4.59800        8.73500
H          4.96700        3.95300        7.74900
H          5.92800        5.06800        7.25700
H          6.93000        2.47000        9.35100
H          7.56500        1.52900        8.29300
H          6.02000        1.65400        8.39500
H          6.87900        2.36700        1.94600
H          6.78000        4.01900        0.35100
H          7.39500        4.58300        1.65800
H          5.91600        4.88900        1.30200
H          5.17800        2.28200        0.40200
H          4.25100        3.02800        1.39900
H          4.75800        1.59800        1.72900
H          9.65100        3.45400        6.46800
H         11.07500        3.75100        6.13400
H         10.43400        2.19300        4.63500
H         10.68200        3.38300        3.87400
H          8.76800        3.13600        2.94900
H          8.49100        2.00900        3.76400
