175
C:\Users\Javier\OneDrive - Universitat de Barcelona\Tesi\4 - Contribucions\Treballs\3-PhD\chapter_1\cif\pc3p\WACFAK.pc3p.pdb
N          1.54700        8.60700       19.34000
C         -0.31500       10.37600       19.47300
C         -0.84000        9.66500       20.73900
C         -0.51200        8.16100       20.65700
C          1.00500        7.97100       20.59900
C          3.02200        8.31300       19.20500
C          4.71100       14.47400       18.35100
C          4.62300       15.15500       19.66600
C          4.64400       14.34200       20.89500
C          2.06700       13.84200       22.08100
C          4.14400       12.50000       16.44500
C          3.14800       11.71100       15.60400
C          5.29700       11.64000       16.86400
C          2.07600       14.49900       17.28800
C          2.44500       15.27200       16.02400
C          0.72200       13.87000       17.18700
C          1.09500       12.84600       22.69200
C          1.27100       14.81000       21.22000
C          4.68300       12.47800       23.56800
C          4.18100       11.82900       22.27400
C          5.28900       11.04700       21.63000
B          1.34800       10.11200       19.32500
P          3.34400       13.31600       17.89600
P          3.40200       13.02200       21.08600
Rh         2.57400       11.87700       19.39600
H         -0.46900       11.33200       19.55600
H         -0.77700       10.04100       18.68100
H         -0.42700       10.04900       21.52300
H         -1.80900        9.77500       20.78100
H         -0.83900        7.71800       21.44900
H         -0.91400        7.77400       19.86000
H          1.41900        8.40500       21.37100
H          1.22200        7.03200       20.59500
H          3.37200        8.77300       18.43800
H          3.47500        8.62400       20.00300
H          3.16100        7.36800       19.10900
H          4.74400       15.15600       17.67200
H          5.55000       13.96500       18.38200
H          5.38300       15.76200       19.72500
H          4.55700       14.94900       21.64700
H          5.53000       13.90300       20.91600
H          2.51100       14.33500       22.78600
H          4.52000       13.21900       15.88200
H          2.40100       12.28100       15.35300
H          2.83800       10.95100       16.14800
H          3.60700       11.37400       14.80900
H          5.95600       12.19400       17.31700
H          4.98100       10.95700       17.46800
H          5.69300       11.23200       16.08400
H          1.98700       15.17700       18.02300
H          3.34000       15.63400       16.09900
H          1.80300       15.98000       15.88400
H          2.38600       14.63100       15.28000
H          0.44900       13.59000       18.06800
H          0.08400       14.50100       16.83500
H          0.79900       13.09900       16.61200
H          1.61100       12.29000       23.33500
H          0.38400       13.30200       23.14900
H          0.74000       12.28000       21.99900
H          1.86000       15.46500       20.79000
H          0.62900       15.28800       21.76300
H          0.79700       14.30900       20.52800
H          3.95400       12.96200       23.97600
H          5.03000       11.78400       24.14900
H          5.42600       13.09600       23.32200
H          3.47000       11.18300       22.54900
H          4.98300       10.58100       20.83900
H          5.66100       10.41800       22.25300
H          5.98400       11.66600       21.37100
H          3.76000       15.67100       19.65300
H          1.11600        8.25200       18.63200
H          1.93100       10.61400       20.24600
H          1.75000       10.57300       18.29500
B         -0.57700       15.01900       11.60900
F          4.23100       16.29800       13.62300
F          4.60600       14.33000       12.99400
F          5.61100       15.97900       12.09000
F          0.87900        9.76400       11.47100
F          1.29600        9.36700       13.52200
F          2.46900       10.73900       12.43600
F         -0.90000       11.27000        7.60200
F         -1.83400       12.39100        6.07500
F          0.07300       12.94700        6.79700
C         -1.10500       16.37400       12.38200
C         -1.65800       17.45400       11.68100
C         -2.00600       18.64200       12.30300
C         -1.80500       18.82200       13.67000
C         -1.24400       17.77300       14.38200
C         -0.89500       16.58900       13.75100
C         -2.57600       19.75500       11.49000
C         -1.01300       17.96400       15.85300
C          0.94100       15.40700       11.10700
C          1.20500       15.93700        9.83900
C          2.48000       16.28800        9.43100
C          3.56600       16.15700       10.28800
C          3.32900       15.67100       11.56500
C          2.04800       15.29700       11.95400
C          2.67600       16.82300        8.03900
C          4.44500       15.55300       12.54800
C         -0.55800       13.68200       12.57500
C         -1.48600       13.44600       13.59900
C         -1.51800       12.26700       14.31600
C         -0.60600       11.24400       14.04200
C          0.29800       11.42900       13.02100
C          0.32500       12.62600       12.31100
C         -2.54500       12.06800       15.38100
C          1.22600       10.32800       12.62100
C         -1.51700       14.58800       10.33100
C         -2.88000       14.89100       10.22100
C         -3.64100       14.47200        9.13500
C         -3.08700       13.68800        8.13400
C         -1.74700       13.35200        8.22800
C         -0.98800       13.79300        9.30200
C         -5.10600       14.83500        9.06900
C         -1.11000       12.49300        7.17500
F         -2.43100       10.91900       16.01000
F         -2.50400       12.98300       16.32300
F         -3.77300       12.09500       14.93100
F         -2.84100       20.82700       12.19000
F         -1.77500       20.16000       10.52300
F         -3.69400       19.44600       10.90000
F          0.00100       18.76300       16.11600
F         -0.75700       16.84200       16.48200
F         -2.05800       18.49400       16.47600
F          3.94500       16.81700        7.67000
F          2.02500       16.12100        7.13500
F          2.25900       18.06600        7.91700
H         -1.79400       17.38000       10.76500
H         -2.04400       19.60400       14.08900
H         -0.50400       15.91300       14.25700
H          0.50200       16.05800        9.25200
H          4.43300       16.37800       10.01400
H          1.91300       14.95500       12.80000
H         -2.11700       14.09900       13.79800
H         -0.62000       10.45000       14.53400
H          0.97200       12.72300       11.63500
H         -3.29600       15.38300       10.89000
H         -3.60200       13.40700        7.41200
H         -0.10200       13.54500        9.34500
F         -5.61600       14.61200        7.85900
F         -5.31000       16.12600        9.34900
F         -5.83100       14.12700        9.93600
N         -0.10300        9.70600       19.45300
C          2.26500        8.64600       19.20100
C          1.95600        7.74700       20.40100
C          0.43500        7.49200       20.47500
C         -0.30200        8.83200       20.67400
C         -0.90600       10.98600       19.55300
H          3.20900        8.85700       19.19800
H          2.03300        8.17900       18.37600
H          2.25700        8.18000       21.21500
H          2.42800        6.90400       20.29900
H          0.24300        6.91700       21.23400
H          0.13800        7.07300       19.65600
H          0.05700        9.28900       21.45200
H         -1.24600        8.67400       20.79700
H         -0.79200       11.50600       18.77200
H         -0.60200       11.48100       20.32700
H         -1.83900       10.76100       19.67400
H         -0.35700        9.24800       18.72100
F         -3.08200       10.85300       15.37700
F         -2.07800       12.23300       16.59300
F         -3.56700       12.89800       15.28600
F         -3.62100       20.33500       12.05800
F         -1.72500       20.72300       11.26600
F         -2.98900       19.38000       10.31300
F          0.24800       18.15200       16.15300
F         -1.39900       16.93300       16.56900
F         -1.65400       18.99500       16.34400
F          3.85400       17.39600        7.88200
F          2.59500       15.88300        7.12500
F          1.77000       17.73600        7.71800
F         -5.50100       15.07100        7.81500
F         -5.37600       15.93100        9.77600
F         -5.87800       13.86400        9.54500
