91
C:\Users\Javier\OneDrive - Universitat de Barcelona\Tesi\4 - Contribucions\Treballs\3-PhD\chapter_1\cif\pc3p\WAJSUW.pc3p.pdb
Pd         2.99400        0.53100        8.03500
P          0.94200       -0.34200        7.60000
P          3.97200       -0.15200        5.96500
C          3.03700       -1.34100        4.91000
H          3.35700       -1.27300        3.99700
H          3.21100       -2.24300        5.21900
C          1.51800       -1.08300        4.93400
H          1.35200       -0.13300        4.82200
H          1.10300       -1.54700        4.19000
C          0.88200       -1.55200        6.23500
H          1.32800       -2.36300        6.52200
H         -0.04500       -1.77500        6.06100
C          0.23500       -1.33800        8.95000
C          0.92800       -2.45100        9.34200
H          1.74100       -2.65300        8.94000
C          0.43600       -3.26600       10.31500
H          0.91200       -4.02900       10.55500
C         -0.75600       -2.97700       10.95500
H         -1.08100       -3.53700       11.62200
C         -1.43900       -1.87200       10.59800
H         -2.24400       -1.67000       11.01400
C         -0.93700       -1.02900        9.59900
H         -1.39900       -0.25300        9.37300
C         -0.29400        0.91400        7.09200
C          0.08500        2.23700        6.92600
H          0.95100        2.49900        7.14000
C         -0.79900        3.15100        6.45200
H         -0.52900        4.03400        6.34500
C         -2.08400        2.79500        6.13000
H         -2.67400        3.43000        5.79000
C         -2.49500        1.51400        6.30700
H         -3.37300        1.27800        6.11600
C         -1.58900        0.53600        6.78200
H         -1.85900       -0.34900        6.88800
C          4.45800        1.16000        4.79600
C          5.14300        0.86600        3.64800
H          5.37200       -0.01800        3.46600
C          5.50800        1.87300        2.74200
H          5.98800        1.67500        1.97000
C          5.12300        3.18700        3.03700
H          5.33200        3.87100        2.44200
C          4.44600        3.47700        4.18400
H          4.20800        4.35800        4.36900
C          4.11500        2.48500        5.06600
H          3.65900        2.69400        5.84900
C          5.52000       -1.03400        6.34200
C          5.42500       -2.24700        7.01000
H          4.59400       -2.64600        7.13000
C          6.57000       -2.87000        7.50600
H          6.48500       -3.67500        7.96400
C          7.71600       -2.37100        7.34900
H          8.46000       -2.81400        7.68700
C          7.88400       -1.16400        6.67700
H          8.73100       -0.79300        6.58100
C          6.76500       -0.51800        6.14700
H          6.87000        0.26700        5.65900
O          0.67700        2.86900       10.33800
C          2.15500        1.06100        9.90200
H          1.27500        0.64500       10.01700
C          2.05000        2.59700       10.01200
H          2.31500        3.03400        9.17700
C          3.02900        2.92100       11.15100
H          2.91100        3.80000       11.56900
C          2.76300        1.73000       12.05300
H          3.34500        1.71700       12.82800
H          1.83500        1.68300       12.33500
C          3.11200        0.65200       11.05700
H          3.01900       -0.26800       11.37900
C          4.50700        1.06900       10.65800
H          5.15500        0.74100       11.31600
C          4.46000        2.59900       10.68700
H          5.10100        2.93500       11.34600
C          4.89200        3.05400        9.25300
H          4.20400        3.60300        8.84300
H          5.71700        3.56500        9.28800
C          5.08800        1.78200        8.48100
C          4.95200        0.70100        9.28000
C          0.32600        4.27400       10.29800
H          0.67500        4.67800        9.48900
H          0.71200        4.73200       11.06000
C         -1.14700        4.40700       10.32700
H         -1.51200        4.11400        9.48800
H         -1.38300        5.32500       10.47700
H         -1.50400        3.86500       11.03600
Sb         2.67200        6.52000        6.80400
F          2.60700        4.69000        6.94700
F          2.96400        8.19900        7.43500
F          4.35600        6.33200        6.18700
F          0.96300        6.64700        7.35000
F          3.01400        6.21300        8.67700
F          2.88700        7.06200        5.26400
