74
C:\Users\Javier\OneDrive - Universitat de Barcelona\Tesi\4 - Contribucions\Treballs\3-PhD\chapter_1\cif\pc3p\WIWSEA.pc3p.pdb
Pd         9.38400        5.13100        4.41800
P          8.88500        6.31500        6.26600
P          7.91000        6.31300        3.19600
N         10.67400        3.91000        5.54600
N          9.75100        3.82700        2.78200
C          8.07500        7.94500        6.15300
H          7.76900        8.20400        7.05900
H          8.75100        8.60800        5.86800
C          6.88700        8.03400        5.20400
H          6.41300        8.89100        5.35200
H          6.25600        7.29700        5.39900
C          7.33200        7.94700        3.74800
H          8.06100        8.60100        3.60600
H          6.57300        8.21900        3.17400
C          7.81200        5.22900        7.25500
H          6.97200        5.08000        6.75400
H          8.26000        4.35200        7.35100
C          7.45300        5.74000        8.65200
H          8.28000        5.84300        9.18500
H          7.02600        6.62900        8.57500
C          6.50800        4.78600        9.36800
H          6.29600        5.13900       10.25700
H          6.93500        3.90800        9.45900
H          5.68100        4.69400        8.84900
C         10.38500        6.69200        7.21600
H         10.14400        7.28000        7.97600
H         10.74900        5.85000        7.58900
C         11.47500        7.37800        6.38100
H         11.80800        6.74900        5.69400
H         11.09000        8.16300        5.91700
C         12.63500        7.82800        7.25900
H         13.31500        8.26300        6.70500
H         13.02700        7.04900        7.70700
H         12.30800        8.46200        7.93300
C          6.45000        5.24000        3.03300
H          6.74000        4.37900        2.64200
H          6.10400        5.05000        3.94200
C          5.30600        5.78600        2.19000
H          5.63000        5.96500        1.27300
H          4.99300        6.64300        2.57700
C          4.13800        4.80300        2.12800
H          3.41900        5.18300        1.58200
H          3.80400        4.63600        3.03500
H          4.44100        3.96000        1.73100
C          8.61500        6.68100        1.56500
H          8.68200        5.84300        1.04400
H          8.00800        7.29400        1.07900
C         10.00600        7.32500        1.66800
H          9.96800        8.09100        2.29400
H         10.64800        6.66400        2.03000
C         10.49000        7.80600        0.30900
H         11.37800        8.21100        0.40300
H          9.86300        8.47100       -0.04500
H         10.54200        7.04600       -0.30700
C         11.36000        3.17200        6.07200
C         12.23200        2.20500        6.72900
H         12.09500        1.32000        6.33200
H         12.01900        2.17000        7.68500
H         13.16600        2.47500        6.61000
C          9.92500        2.96200        2.06300
C         10.15500        1.84000        1.16300
H         11.02300        1.94800        0.72200
H          9.44600        1.81400        0.48700
H         10.14900        1.00500        1.67400
B          4.23800        9.27300        0.44200
F          5.31000        8.85800        1.17300
F          4.61100        9.63600       -0.81800
F          3.67500       10.39400        1.04000
F          3.29500        8.26100        0.37100
B          3.71100        4.96000        6.29700
F          4.33200        6.14600        6.25000
F          4.61900        3.96000        5.93500
F          3.30500        4.77500        7.60700
F          2.62400        4.89900        5.49900
