132
C:\Users\Javier\OneDrive - Universitat de Barcelona\Tesi\4 - Contribucions\Treballs\3-PhD\chapter_1\cif\pc3p\WUMKAR.pc3p.pdb
Pd         2.74800       14.33300       12.29700
Cl         4.77600       14.38700       11.07100
Cl         2.12900       16.20200       10.99500
P          3.71700       12.71500       13.61700
C          2.64700       12.09700       14.96400
H          3.04700       11.26600       15.32500
H          2.64500       12.76600       15.69500
C          1.20300       11.80400       14.58300
H          1.17800       11.38400       13.68500
H          0.81400       11.16300       15.22900
C          0.37900       13.07100       14.57100
H          0.55500       13.55000       15.41700
H         -0.57500       12.80900       14.57600
P          0.62000       14.25100       13.20400
C          4.19100       11.15700       12.64400
C          3.98700        9.88700       13.47300
H          4.23800        9.10500       12.93900
H          3.04500        9.81500       13.73300
H          4.54700        9.93000       14.27500
C          3.25700       11.07900       11.42200
H          3.47200       10.28400       10.89500
H          3.37700       11.88100       10.86900
H          2.32600       11.03100       11.72500
C          5.63800       11.16000       12.12600
H          5.81200       10.33000       11.63500
H          6.25500       11.22600       12.88400
H          5.76900       11.92700       11.52900
C          5.17300       13.39800       14.64200
C          5.58700       12.37200       15.72100
H          6.33800       12.72900       16.23900
H          5.85500       11.53300       15.28800
H          4.82800       12.20300       16.31900
C          6.43400       13.78300       13.87300
H          7.11100       14.11400       14.49900
H          6.22000       14.48100       13.22100
H          6.78300       12.99600       13.40400
C          4.64400       14.67100       15.31000
H          5.35300       15.07300       15.85200
H          3.88200       14.44700       15.88300
H          4.35700       15.30600       14.62100
C         -0.68000       13.66000       11.94500
C         -0.41900       12.20900       11.61700
H         -1.08100       11.89800       10.96500
H         -0.48600       11.67100       12.43400
H          0.48000       12.11700       11.23800
C         -2.13300       13.78300       12.47600
H         -2.76000       13.47900       11.78600
H         -2.32000       14.72000       12.69700
H         -2.23700       13.23200       13.27800
C         -0.60000       14.43500       10.61600
H         -1.28900       14.10500       10.00300
H          0.28300       14.30600       10.21400
H         -0.74500       15.38900       10.78700
C          0.09900       15.88100       14.01600
C         -0.95400       15.70300       15.11700
H         -1.18300       16.57900       15.49300
H         -0.59400       15.12800       15.82400
H         -1.75700       15.29200       14.73700
C         -0.45900       16.93200       13.02200
H         -0.70400       17.74600       13.51100
H         -1.25000       16.56700       12.57200
H          0.22600       17.14500       12.35500
C          1.37100       16.43800       14.64700
H          1.17200       17.29200       15.08700
H          2.04700       16.57900       13.95200
H          1.71300       15.80000       15.31000
Pd        -0.74500        7.32600       13.34400
Cl         0.95500        8.11000       11.89600
Cl        -2.21600        8.73600       12.12000
P          0.54000        5.51500       13.97900
C         -0.04000        4.55400       15.44900
H          0.16100        3.60000       15.28100
H          0.50800        4.83600       16.22400
C         -1.49900        4.65200       15.85800
H         -1.68300        3.99400       16.57400
H         -2.07100        4.42800       15.08200
C         -1.85600        6.04800       16.35800
H         -1.09200        6.39900       16.88300
H         -2.62900        5.97600       16.97100
P         -2.26000        7.24900       15.06800
C          0.41300        4.25000       12.57500
C          1.34300        3.02000       12.78900
H          1.24400        2.39900       12.03700
H          1.09500        2.56300       13.62100
H          2.27400        3.31900       12.84700
C         -1.04100        3.75500       12.54100
H         -1.14500        3.09700       11.82100
H         -1.63900        4.51400       12.37700
H         -1.26500        3.34200       13.39800
C          0.71800        4.87900       11.18300
H          0.64600        4.18900       10.49000
H          1.62700        5.24700       11.18300
H          0.07600        5.59400       10.99900
C          2.34900        5.84700       14.46300
C          2.94100        4.72100       15.34100
H          3.87100        4.93300       15.56600
H          2.91000        3.87300       14.84800
H          2.41600        4.63800       16.16400
C          3.27000        6.03100       13.24100
H          4.18600        6.20300       13.54300
H          2.95400        6.79000       12.70500
H          3.25400        5.21500       12.69400
C          2.33900        7.12000       15.27700
H          3.25400        7.33800       15.55300
H          1.78000        6.99400       16.07200
H          1.97700        7.85300       14.73500
C         -4.07300        6.87600       14.63600
C         -4.05700        5.91600       13.44100
H         -4.97800        5.70100       13.18300
H         -3.58600        5.09100       13.68800
H         -3.59800        6.34100       12.68600
C         -4.83400        6.18300       15.78800
H         -5.75900        6.01400       15.51300
H         -4.82800        6.76400       16.57900
H         -4.39700        5.33300       16.00300
C         -4.86900        8.11100       14.21500
H         -5.79000        7.85000       14.00400
H         -4.45400        8.51400       13.42300
H         -4.87500        8.76100       14.94800
C         -2.11200        8.87800       16.03600
C         -3.04600        8.91300       17.22900
H         -2.93900        9.76600       17.70300
H         -2.82900        8.17500       17.83600
H         -3.97200        8.82400       16.92200
C         -2.35600       10.13100       15.16900
H         -2.26700       10.93600       15.72300
H         -3.25800       10.09400       14.78900
H         -1.69800       10.16000       14.44300
C         -0.63200        8.98200       16.50600
H         -0.50900        9.80900       17.01500
H         -0.04000        8.98800       15.72500
H         -0.41500        8.21500       17.07500
