136
C:\Users\Javier\OneDrive - Universitat de Barcelona\Tesi\4 - Contribucions\Treballs\3-PhD\chapter_1\cif\pc3p\XAWQUH.pc3p.pdb
Rh         2.87700        5.34000        9.59000
P          4.97200        5.85700       10.14900
P          2.57800        7.46500        9.02900
N          0.97100        4.76700        8.96800
N          0.87000        3.80100        8.00200
N          3.14300        3.24200        9.73200
N          2.97500        2.56600        8.56100
N          4.28100        4.32200        6.68800
N          2.97700        4.00300        6.42800
C          5.88100        6.85500        8.89700
C          5.26300        8.20400        8.54400
C          3.88000        8.11700        7.91800
C         -0.28200        5.06700        9.35700
C         -1.19200        4.29000        8.62800
C         -0.43300        3.50100        7.79100
C         -0.57100        6.08200       10.41000
C         -1.96400        6.71800       10.23400
C         -0.66900        5.51400       11.80600
C         -0.90800        2.45600        6.80800
C         -2.22700        2.91500        6.15700
C         -1.08600        1.12200        7.48800
C          3.63000        2.39900       10.63900
C          3.79800        1.13500       10.06300
C          3.38800        1.28300        8.73200
C          3.89400        2.76900       12.05700
C          2.60900        2.86500       12.85300
C          4.84600        1.79300       12.74300
C          3.49600        0.30800        7.60000
C          4.61100        0.70000        6.68700
C          3.68800       -1.10300        8.10800
C          4.78500        4.82100        5.55600
C          3.79800        4.83100        4.55200
C          2.68200        4.29400        5.13900
C          6.23100        5.21500        5.44400
C          6.40700        6.70700        5.12900
C          6.92700        4.36000        4.40400
C          1.34900        3.99800        4.47400
C          1.05600        5.01500        3.36800
C          1.35400        2.58300        3.87000
C          6.20100        4.49300       10.29800
C          7.04900        4.36700       11.39600
C          7.96200        3.32400       11.44100
C          8.05600        2.41800       10.40200
C          7.20300        2.54800        9.31000
C          6.27500        3.57600        9.26800
C          5.23800        6.78900       11.69700
C          4.38400        6.53600       12.77100
C          4.56400        7.17600       14.00900
C          5.58800        8.10600       14.13300
C          6.43000        8.36700       13.10000
C          6.26600        7.71200       11.88400
C          2.45200        8.76700       10.31700
C          1.97700        8.41600       11.56300
C          1.73900        9.38600       12.52600
C          1.97800       10.70800       12.24900
C          2.47000       11.06700       11.03800
C          2.70500       10.11000       10.04400
C          1.09400        7.82300        7.99800
C          0.82900        7.00700        6.89700
C         -0.28800        7.19800        6.10800
C         -1.16300        8.23000        6.39600
C         -0.89000        9.07200        7.45300
C          0.21400        8.86800        8.26100
B          2.13200        3.12400        7.41200
H          1.83900        2.37100        6.91200
H          6.77000        7.01100        9.20500
H          5.93500        6.34800        8.07800
H          5.19300        8.69900        9.35700
H          5.84600        8.65800        7.95000
H          3.92500        7.55100        7.14800
H          3.61700        8.99200        7.63100
H         -2.14700        4.32600        8.69500
H          0.08200        6.77600       10.31000
H         -2.06500        7.44800       10.85300
H         -2.64000        6.05900       10.40900
H         -2.05500        7.03500        9.33600
H         -0.45500        6.22800       12.44700
H          0.41000        5.04600       11.88000
H         -1.15400        4.89600       11.97300
H         -0.24100        2.36400        6.13000
H         -2.11300        3.79000        5.78800
H         -2.92300        2.94500        6.81500
H         -2.46600        2.30700        5.46100
H         -1.41600        0.48200        6.85000
H         -1.70600        1.21200        8.20400
H         -0.23500        0.82500        7.83000
H          4.12100        0.34900       10.49100
H          4.30500        3.63200       12.06000
H          2.11600        3.63900       12.58000
H          2.81600        2.92700       13.78800
H          2.07800        2.08200       12.69600
H          5.63300        1.68800       12.20600
H          4.41100        0.94400       12.84800
H          5.08500        2.13900       13.60700
H          2.67700        0.33600        7.10200
H          5.41600        0.82500        7.20000
H          4.39200        1.52000        6.24300
H          4.74500        0.00000        6.03300
H          2.91100       -1.36900        8.61200
H          4.46800       -1.13700        8.67000
H          3.81000       -1.69800        7.36500
H          3.88500        5.13800        3.65800
H          6.63500        5.06100        6.28800
H          6.07900        6.88700        4.24800
H          7.33900        6.93700        5.18100
H          5.90800        7.22800        5.76500
H          6.53800        4.52100        3.54800
H          6.82800        3.43300        4.63300
H          7.85500        4.57700        4.37600
H          0.66300        4.07300        5.13600
H          1.09100        5.90200        3.73400
H          0.18000        4.85900        3.01100
H          1.70700        4.93400        2.67200
H          1.55500        1.94400        4.55700
H          2.01900        2.53100        3.18600
H          0.48800        2.40100        3.50100
H          7.01500        4.98600       12.10900
H          8.53500        3.23600       12.19200
H          8.69900        1.71700       10.43500
H          7.26900        1.93400        8.58500
H          5.69400        3.64900        8.50700
H          3.68200        5.91700       12.66400
H          3.98100        6.95600       14.71600
H          5.67300        8.56800       14.98100
H          7.14700        8.98800       13.18200
H          6.86300        7.90000       11.15500
H          1.77600        7.49800       11.73700
H          1.40200        9.11900       13.41900
H          1.78500       11.37400       12.88300
H          2.67700       11.99700       10.89900
H          2.99300       10.36900        9.14900
H          1.44200        6.30100        6.69600
H         -0.45200        6.61300        5.35600
H         -1.92300        8.38900        5.85900
H         -1.47800        9.79800        7.61600
H          0.37500        9.43600        9.00500
