60
C:\Users\Javier\OneDrive - Universitat de Barcelona\Tesi\4 - Contribucions\Treballs\3-PhD\chapter_1\cif\pc3p\XEYBIN.pc3p.pdb
P          0.05000        1.14300        6.29500
F          0.71500       -0.91800        1.54000
C          0.74900       -1.46200        2.80800
Pd         0.33600       -0.20700        4.40300
P         -0.73500        1.29100        2.95300
F         -0.09400       -2.53100        2.70200
C          1.24100       -1.66300        5.59900
F          1.98700       -2.03700        2.83300
C         -0.65800        2.81200        6.07200
H         -1.48100        2.83600        6.58500
H         -0.04700        3.43300        6.49800
F          0.94800       -2.94800        5.25700
C         -0.95100        3.33400        4.84000
H         -1.53900        4.08100        5.03100
H         -0.11500        3.72900        4.54400
F          2.60900       -1.62100        5.55900
C         -1.47400        2.77600        3.70800
H         -1.48000        3.46700        3.02700
H         -2.40100        2.56500        3.90000
F          0.98600       -1.66300        6.94000
C         -1.02700        0.39100        7.62900
H         -0.44900       -0.18700        8.17000
C         -2.07700       -0.51000        6.98700
H         -2.61200       -0.91700        7.67400
H         -1.64200       -1.19500        6.47500
H         -2.64000        0.01300        6.41200
C         -1.68600        1.36500        8.57800
H         -2.11700        0.88000        9.28700
H         -2.34000        1.88400        8.10300
H         -1.02200        1.95000        8.95000
C          1.68900        1.42400        7.07100
H          2.00400        0.54800        7.38100
C          2.68100        1.89300        6.01800
H          3.54800        1.99400        6.41600
H          2.39200        2.73400        5.65800
H          2.72800        1.24300        5.31000
C          1.73600        2.35400        8.27500
H          2.64500        2.45300        8.56900
H          1.20900        1.98400        8.98700
H          1.38500        3.21300        8.02900
C         -2.16000        0.48800        2.09100
H         -1.76500       -0.23000        1.55600
C         -3.03800       -0.20200        3.07900
H         -3.74700       -0.65400        2.61800
H         -3.41100        0.44500        3.68200
H         -2.52100       -0.84000        3.57600
C         -2.86100        1.44900        1.04400
H         -3.47400        0.94200        0.50600
H         -2.19500        1.84800        0.48000
H         -3.34000        2.13700        1.51300
C          0.33700        1.97200        1.60600
H          0.30500        1.33400        0.86300
C          1.77600        2.07700        2.03900
H          2.31600        2.34400        1.29100
H          2.07600        1.22500        2.36300
H          1.85200        2.73100        2.73900
C         -0.14700        3.32400        1.06400
H          0.43600        3.61100        0.35700
H         -0.13700        3.97400        1.77000
H         -1.04000        3.23100        0.72600
