103
C:\Users\Javier\OneDrive - Universitat de Barcelona\Tesi\4 - Contribucions\Treballs\3-PhD\chapter_1\cif\pc3p\XILXAR.pc3p.pdb
Pd        -2.81800        7.68800        6.58400
Cl        -0.62900        7.21500        7.47700
P         -4.77900        8.05000        5.52300
P         -3.88600        6.86600        8.56000
C         -1.87900        8.69600        4.96000
C         -6.10400        6.81900        5.94800
C         -6.52300        6.80400        7.44000
C         -5.54100        6.05200        8.37500
C         -4.66300        7.92800        3.67600
C         -4.93500        9.00500        2.81100
C         -4.71200        8.87300        1.43300
C         -4.22200        7.69100        0.89500
C         -3.94200        6.62400        1.73000
C         -4.16600        6.73000        3.12600
C         -5.55900        9.68900        5.83900
C         -6.84400       10.01400        5.31400
C         -7.36400       11.31200        5.49800
C         -6.64200       12.25800        6.21200
C         -5.39700       11.94900        6.77900
C         -4.86000       10.66300        6.57700
C         -4.13700        8.31500        9.68600
C         -5.29400        8.54500       10.44900
C         -5.38500        9.68000       11.27200
C         -4.34900       10.60000       11.34600
C         -3.18700       10.38700       10.58900
C         -3.08500        9.25400        9.76900
C         -2.93100        5.64100        9.61900
C         -3.56400        5.32200       10.96400
C         -3.30100        6.10000       12.11300
C         -3.87600        5.79800       13.36400
C         -4.71400        4.68600       13.45900
C         -5.02000        3.88900       12.34000
C         -4.44200        4.21500       11.09700
C         -3.54800        6.70400       14.57300
C         -5.96000        2.68300       12.46300
H         -4.93100       12.68700        7.19500
H         -4.63000        3.67300       10.28700
H         -2.33300        9.44200        4.76000
H         -4.41700       11.35900       11.87100
H         -5.08400        4.46700       14.33900
H         -2.76200        6.76300       11.99400
H         -4.00600        7.63600       -0.10600
H         -4.84000        9.59300        0.90000
H         -3.94700       10.43900        6.93500
H         -5.67700        1.96000       11.85400
H         -4.01700        5.94900        3.71200
H         -5.73900        5.92200        5.60400
H         -2.84200        4.85400        9.05300
H         -5.90400        5.91800        9.22400
H         -5.28600        9.80200        3.11400
H         -5.34800        5.18400        7.97400
H         -6.07000        2.34000       13.29800
H         -3.68500        5.78700        1.40000
H         -3.89400        7.57700       14.42600
H         -2.61700        6.45100       14.99700
H         -6.89300        6.98200        5.34600
H         -6.00300        7.95000       10.36400
H         -2.28600        9.08000        9.31300
H         -7.42500        6.37000        7.53700
H         -2.08600        6.00600        9.71600
H         -6.63800        7.63900        7.80900
H         -8.21300       11.41400        5.12500
H         -6.96400       13.09200        6.29000
H         -7.25900        9.30800        4.80900
H         -6.14200        9.76800       11.72900
H         -1.05700        8.82400        5.22400
H         -4.22000        6.44200       15.33900
H         -2.51500       11.09400       10.66700
H         -1.87300        8.06400        4.21500
H         -6.86800        2.90000       12.08100
C         -8.81900        8.82600       12.51200
C         -9.19200        8.04300       11.21900
H         -9.74400        8.45400       10.58000
C         -8.78500        6.89900       11.00700
H         -9.04400        6.46000       10.21800
C         -7.92800        6.22300       11.93200
H         -7.64100        5.34600       11.76000
C         -7.55700        6.82900       12.99500
H         -6.95900        6.37000       13.55900
C         -7.97000        8.15300       13.41300
C         -9.19600       10.28600       12.80500
H         -9.78100       10.61600       12.10600
H         -8.39200       10.82900       12.83600
H         -9.65300       10.33700       13.65900
C         -6.99200        8.40600       14.65600
H         -6.61400        7.56000       14.94600
H         -7.49500        8.80200       15.38600
H         -6.27800        9.00600       14.38900
C         -8.44500        7.40800       12.14400
C         -9.20200        8.57300       11.76700
H         -9.65600        8.49300       10.94800
C         -9.36200        9.69700       12.35000
H         -9.89600       10.40200       12.03200
C         -8.61700        9.71700       13.54000
H         -8.70900       10.51400       14.02800
C         -7.80700        8.83100       14.11400
H         -7.36600        8.99200       14.92800
C         -7.66400        7.57200       13.35000
H         -7.08000        6.89600       13.64300
C         -8.38100        6.18500       11.34100
H         -7.81600        5.53500       11.78600
H         -8.01000        6.39200       10.46800
H         -9.27400        5.82100       11.23500
