81
C:\Users\Javier\OneDrive - Universitat de Barcelona\Tesi\4 - Contribucions\Treballs\3-PhD\chapter_1\cif\pc3p\XULXUX01.pc3p.pdb
Pd         1.63700        4.17600       14.89500
P          1.63300        5.74600       16.63800
P         -0.22200        3.10000       15.52100
N          3.55500        4.99500       14.32900
N          3.85400        5.17200       13.27200
N          4.26800        5.41200       12.19300
N          0.19400        5.05600       10.57600
C          0.15500        5.84800       17.72200
H          0.43600        6.16500       18.59400
H         -0.45000        6.51000       17.35300
C         -0.61700        4.54200       17.90900
H         -1.28300        4.67100       18.60300
H         -0.00300        3.85800       18.21600
C         -1.31800        4.04600       16.64200
H         -1.67400        4.80900       16.16200
H         -2.06500        3.48300       16.89700
C          1.76000        2.94500       13.26900
C          2.48000        1.76900       13.35400
H          2.79400        1.48900       14.18400
C          2.74400        0.99600       12.23200
H          3.23700        0.21200       12.30800
C          2.26300        1.41100       10.99700
H          2.45400        0.91600       10.23400
C          1.51000        2.54400       10.90500
H          1.16500        2.79700       10.07900
C          1.25100        3.33500       12.02700
C          0.38300        4.56100       11.89900
H         -0.48800        4.36100       12.27700
H          0.77400        5.26900       12.43500
C         -1.01800        5.80700       10.39900
H         -0.99100        6.59100       10.95200
H         -1.77000        5.26400       10.64900
H         -1.10200        6.06600        9.47800
C          1.33500        5.86900       10.24100
H          1.27000        6.71400       10.69500
H          1.35600        6.01700        9.29200
H          2.13900        5.42000       10.51300
C          0.12900        1.62300       16.52500
C          1.40800        1.38600       17.01500
H          2.10900        1.94900       16.77800
C          1.64000        0.30100       17.86400
H          2.49600        0.15100       18.19400
C          0.63200       -0.53600       18.21400
H          0.79800       -1.25500       18.77800
C         -0.65300       -0.31700       17.72100
H         -1.34400       -0.89300       17.95400
C         -0.90000        0.75600       16.89000
H         -1.76000        0.90200       16.56900
C         -1.34900        2.51200       14.22300
C         -1.03800        1.33500       13.54900
H         -0.29900        0.83000       13.80100
C         -1.85500        0.91600       12.48300
H         -1.65700        0.13700       12.01600
C         -2.97500        1.69600       12.13200
H         -3.51800        1.42500       11.42800
C         -3.27200        2.82100       12.79600
H         -4.02100        3.31900       12.56000
C         -2.46100        3.23800       13.82900
H         -2.66600        4.02800       14.27300
C          1.78400        7.45800       16.02600
C          1.69600        7.72700       14.67500
H          1.57200        7.03000       14.07200
C          1.79300        9.03500       14.21400
H          1.71700        9.21500       13.30600
C          2.00100       10.05500       15.09900
H          2.08400       10.92700       14.78300
C          2.08600        9.81300       16.41700
H          2.22400       10.51600       17.01000
C          1.96900        8.51500       16.89900
H          2.01600        8.35600       17.81400
C          3.05200        5.55700       17.77400
C          2.94600        4.88600       18.96900
H          2.12900        4.52500       19.22600
C          4.06100        4.74400       19.80300
H          3.98000        4.31100       20.62200
C          5.26700        5.24500       19.41100
H          6.01000        5.14300       19.96300
C          5.39500        5.89600       18.21600
H          6.22300        6.23200       17.95900
C          4.29500        6.05800       17.38700
H          4.38600        6.49900       16.57500
