81
C:\Users\Javier\OneDrive - Universitat de Barcelona\Tesi\4 - Contribucions\Treballs\3-PhD\chapter_1\cif\pc3p\XULXUX.pc3p.pdb
Pd         1.63700        4.17600       14.89500
P          1.63300        5.74600       16.63800
P         -0.22200        3.10000       15.52100
N          3.55500        4.99600       14.32800
N          3.85400        5.17400       13.27400
N          4.26600        5.41200       12.19300
N          0.19300        5.05600       10.57500
C          0.15300        5.85000       17.72200
H          0.43500        6.16600       18.59400
H         -0.45000        6.51200       17.35300
C         -0.61800        4.54500       17.91000
H         -1.28500        4.67400       18.60300
H         -0.00500        3.86000       18.21800
C         -1.31800        4.04600       16.64200
H         -1.67500        4.80800       16.16000
H         -2.06500        3.48300       16.89700
C          1.76100        2.94300       13.26900
C          2.47900        1.76800       13.35600
H          2.79300        1.48800       14.18600
C          2.74400        0.99600       12.23400
H          3.23700        0.21200       12.30800
C          2.26200        1.41100       10.99600
H          2.45300        0.91500       10.23200
C          1.51000        2.54400       10.90300
H          1.16400        2.79700       10.07900
C          1.25100        3.33300       12.02700
C          0.38400        4.56000       11.89900
H         -0.48700        4.35800       12.27700
H          0.77500        5.26600       12.43700
C         -1.01800        5.81000       10.40300
H         -0.98500        6.59800       10.95000
H         -1.77000        5.27200       10.66200
H         -1.10900        6.06300        9.48200
C          1.34400        5.87400       10.23900
H          1.28400        6.71500       10.69700
H          1.36300        6.02500        9.29200
H          2.14700        5.42000       10.50700
C          0.12900        1.62300       16.52500
C          1.40700        1.38600       17.01800
H          2.10800        1.95000       16.78300
C          1.63900        0.30100       17.86500
H          2.49700        0.15100       18.19400
C          0.63200       -0.53600       18.21400
H          0.79900       -1.25500       18.78000
C         -0.65300       -0.31700       17.72200
H         -1.34300       -0.89300       17.95400
C         -0.90000        0.75700       16.88900
H         -1.76000        0.90400       16.56900
C         -1.34800        2.51000       14.22300
C         -1.03700        1.33300       13.55100
H         -0.30000        0.82600       13.80400
C         -1.85500        0.91800       12.48400
H         -1.65800        0.13800       12.01600
C         -2.97600        1.69800       12.13200
H         -3.51900        1.42700       11.42800
C         -3.27300        2.82100       12.79600
H         -4.02300        3.31700       12.56300
C         -2.46100        3.23900       13.82900
H         -2.66500        4.03000       14.27500
C          1.78500        7.45800       16.02700
C          1.69600        7.72700       14.67500
H          1.57200        7.03000       14.07200
C          1.79200        9.03300       14.21400
H          1.71400        9.21300       13.30400
C          2.00100       10.05500       15.09600
H          2.08500       10.92500       14.78300
C          2.08600        9.81300       16.41900
H          2.22400       10.51800       17.01200
C          1.96900        8.51600       16.89900
H          2.01600        8.35600       17.81400
C          3.05200        5.55900       17.77300
C          2.94400        4.88600       18.96900
H          2.12700        4.52100       19.22300
C          4.05900        4.74400       19.80400
H          3.97700        4.31000       20.62200
C          5.26700        5.24500       19.41100
H          6.00900        5.14200       19.96300
C          5.39600        5.89600       18.21800
H          6.22400        6.23300       17.96100
C          4.29400        6.05800       17.38600
H          4.38500        6.50100       16.57300
