55
C:\Users\Javier\OneDrive - Universitat de Barcelona\Tesi\4 - Contribucions\Treballs\3-PhD\chapter_1\cif\pc3p\YADFAL.pc3p.pdb
Pd         9.28900        7.99900       11.52300
P         11.33700        7.28400       10.95500
P          9.99600       10.02000       12.22900
Cl         7.08800        8.71500       12.08500
Cl         8.46300        5.97300       10.65300
C          9.44800       11.28800       11.04800
C          8.73900       10.94200        9.90500
H          8.53900       10.05100        9.72700
C          8.32500       11.95600        9.01300
H          7.86800       11.73100        8.23600
C          8.58600       13.24700        9.29000
H          8.31100       13.90900        8.69800
C          9.25000       13.59500       10.42900
H          9.40300       14.49400       10.61400
C          9.69200       12.64100       11.29100
H         10.16100       12.89500       12.05300
C         11.62900        7.32900        9.17500
C         12.63500        6.57300        8.60000
H         13.12600        5.98500        9.12900
C         12.92300        6.68000        7.24300
H         13.59500        6.15800        6.86600
C         10.90000        8.17900        8.35400
H         10.19400        8.67000        8.70700
C         11.21500        8.30100        7.01500
H         10.74200        8.89900        6.48400
C         12.21800        7.55000        6.45900
H         12.41700        7.63300        5.55700
C         11.66100        5.56100       11.47000
H         11.16100        4.95900       10.89600
H         12.60500        5.36800       11.35200
C         11.28200        5.29800       12.90700
H         11.78200        5.89200       13.48700
H         10.33700        5.47800       13.03100
O         11.56300        3.93500       13.25400
H         12.36300        3.78600       13.15300
C         11.77200       10.35900       12.47300
H         11.91000       11.31900       12.44200
H         12.02500       10.05700       13.35900
C          9.30500        9.42000       14.88500
H          8.93600        9.74900       15.71900
H          8.76900        8.66500       14.59200
C         12.70400        9.69700       11.44700
H         12.39000        9.90100       10.55300
H         13.59600       10.06600       11.54000
O         10.62500        9.01300       15.08100
H         10.64600        8.41600       15.64300
C          9.26200       10.52100       13.83100
H          9.73900       11.29600       14.16700
H          8.33900       10.78100       13.68700
C         12.76700        8.18100       11.62300
H         12.84200        7.98300       12.57000
H         13.57000        7.85200       11.18800
C          0.47100        8.55200       15.18400
Cl         1.15800        7.39500       14.47100
Cl        -0.21700        7.39500       15.89800
