75
C:\Users\Javier\OneDrive - Universitat de Barcelona\Tesi\4 - Contribucions\Treballs\3-PhD\chapter_1\cif\pc3p\YADNIA.pc3p.pdb
Rh        14.74800        6.98500        5.16200
Sn        14.01600        5.75200        2.94900
P         15.68500        8.87000        4.24200
P         12.76800        8.08900        5.51600
Cl        15.68600        4.67900        1.57500
Cl        12.69900        3.73800        3.14200
Cl        12.76200        6.75000        1.12300
C         16.67500        6.31700        6.09900
C         16.37500        5.45300        5.07900
C         15.55700        4.34200        5.73500
C         14.26500        5.07600        6.11700
C         14.58000        5.94900        7.12300
C         16.08100        5.75300        7.35900
C         16.20900        4.26600        7.11000
C         14.56600        9.88700        3.23400
C         13.30700       10.37200        3.98800
C         12.28100        9.26200        4.21300
C         16.48900       10.07400        5.34500
C         16.96700       11.27200        4.82700
C         17.66000       12.15200        5.64700
C         17.88400       11.86300        6.97600
C         17.43400       10.70000        7.46600
C         16.74500        9.78500        6.67200
C         17.05300        8.51800        3.08800
C         18.35000        8.44800        3.47400
C         19.39800        8.18100        2.68500
C         19.17500        7.94600        1.37100
C         17.93700        7.98900        0.88800
C         16.84300        8.22900        1.75100
C         12.53000        9.11100        7.01900
C         13.59300        9.35400        7.87600
C         13.42100       10.19200        8.96900
C         12.19800       10.74600        9.21100
C         11.13200       10.48900        8.38200
C         11.28500        9.68400        7.28500
C         11.35500        6.93600        5.63700
C         10.95700        6.44300        6.87400
C          9.93000        5.52500        6.96300
C          9.28300        5.10200        5.82400
C          9.67600        5.57800        4.60600
C         10.71200        6.48800        4.50900
H         17.22900        7.16500        6.02400
H         16.62700        5.53000        4.07800
H         15.46400        3.47200        5.09700
H         13.33700        4.94200        5.65300
H         13.96000        6.59600        7.59900
H         16.45700        6.13700        8.15600
H         17.15500        3.85800        7.13600
H         15.77500        3.63800        7.78500
H         14.32600        9.42500        2.31700
H         15.06800       10.67500        2.78000
H         12.89900       11.17100        3.52200
H         13.57000       10.78500        4.81900
H         11.35400        9.64600        4.35600
H         12.07300        8.78200        3.33600
H         16.81200       11.48300        3.80000
H         18.00700       13.04500        5.19000
H         18.38300       12.49400        7.50700
H         17.56400       10.45400        8.43400
H         16.43000        8.89300        7.04300
H         18.54000        8.61700        4.44800
H         20.37500        8.15800        2.96600
H         19.93900        7.73500        0.64900
H         17.74700        7.82700       -0.09300
H         15.89300        8.23100        1.29700
H         14.48400        8.87400        7.69200
H         14.26100       10.41700        9.45300
H         12.11400       11.33600       10.00900
H         10.25400       10.91400        8.52600
H         10.43800        9.48000        6.67300
H         11.45500        6.76100        7.69200
H          9.65600        5.16300        7.87700
H          8.51000        4.44600        5.83900
H          9.18200        5.23600        3.70700
H         11.00100        6.83500        3.52200
