58
C:\Users\Javier\OneDrive - Universitat de Barcelona\Tesi\4 - Contribucions\Treballs\3-PhD\chapter_1\cif\pc3p\YIJBAV.pc3p.pdb
Pd         1.07100        3.64400        3.11300
I          2.46900        2.49300        1.16000
I          0.74700        5.85400        1.66800
P          1.42000        1.74100        4.29600
C          0.44600        0.34700        3.66700
C          0.53700       -0.91600        4.27600
C         -0.28900       -1.94500        3.86900
C         -1.22600       -1.73900        2.85800
C         -1.31800       -0.50000        2.25900
C         -0.49100        0.54200        2.65400
C          3.16000        1.24700        4.39800
C          3.65600        0.09400        3.78300
C          5.01800       -0.18600        3.85000
C          5.88300        0.65200        4.52200
C          5.38900        1.78500        5.14900
C          4.03400        2.09400        5.07600
C          0.98500        1.76700        6.07200
C         -0.40100        2.32600        6.35900
C         -0.39100        3.85300        6.33500
P         -0.28800        4.61300        4.66900
C         -2.01000        4.66200        4.10600
C         -3.00800        5.21300        4.92100
C         -4.31500        5.28800        4.46700
C         -4.65400        4.77300        3.21500
C         -3.68400        4.17200        2.43600
C         -2.36500        4.13800        2.86600
C          0.22100        6.30000        5.11500
C         -0.60600        7.41000        5.10600
C         -0.12500        8.63800        5.50800
C          1.19800        8.77900        5.89400
C          2.02700        7.67000        5.92300
C          1.53800        6.43600        5.55200
H          1.16100       -1.05900        4.98500
H         -0.20600       -2.80600        4.27900
H         -1.79700       -2.44800        2.57300
H         -1.96300       -0.36200        1.56500
H         -0.56900        1.40100        2.23100
H          3.07000       -0.49700        3.32400
H          5.34900       -0.96700        3.41900
H          6.81300        0.44600        4.55500
H          5.98100        2.36000        5.63900
H          3.70500        2.89100        5.49100
H          1.03700        0.87800        6.40900
H          1.63000        2.30600        6.53000
H         -0.69000        2.02500        7.22100
H         -1.00900        2.00900        5.70300
H          0.37300        4.14900        6.84000
H         -1.17600        4.17000        6.76400
H         -2.79300        5.53400        5.79500
H         -4.98900        5.69200        5.00800
H         -5.55900        4.83000        2.91400
H         -3.92000        3.79200        1.59000
H         -1.69100        3.74900        2.30900
H         -1.51100        7.33000        4.80900
H         -0.70900        9.39700        5.52200
H          1.53300        9.63900        6.14800
H          2.93700        7.76900        6.18600
H          2.09700        5.66200        5.60500
