65
C:\Users\Javier\OneDrive - Universitat de Barcelona\Tesi\4 - Contribucions\Treballs\3-PhD\chapter_1\cif\pc3p\YIZDIU02.pc3p.pdb
Rh         2.68200        2.65000       16.45800
I          0.07800        2.17900       16.05900
I          3.04200       -0.00400       16.97000
P          4.92400        3.02900       16.79800
P          2.22200        4.82700       16.93100
O          3.04800        4.01200       13.99500
C          2.93700        2.95800       14.51900
C          2.97200        1.67700       13.71200
C          5.50700        4.60800       16.11600
C          4.90000        5.84600       16.77000
C          3.43500        6.10200       16.43100
C          6.05100        1.82700       16.02300
C          6.30100        1.89000       14.68400
C          7.12700        0.95000       14.09000
C          7.70500       -0.04700       14.85000
C          7.47000       -0.10400       16.18100
C          6.64700        0.81800       16.78400
C          5.45200        3.10200       18.52500
C          6.68000        3.66200       18.88300
C          7.03800        3.81200       20.20800
C          6.18700        3.38700       21.18600
C          4.99000        2.82000       20.86000
C          4.60700        2.68600       19.54600
C          0.68100        5.58700       16.30300
C         -0.36400        5.92600       17.16700
C         -1.52500        6.44500       16.64800
C         -1.65100        6.68800       15.32000
C         -0.64600        6.37000       14.47300
C          0.52300        5.82000       14.96100
C          2.08500        4.90700       18.75800
C          2.65400        5.90200       19.49700
C          2.49300        5.90700       20.88500
C          1.78400        4.93800       21.50100
C          1.22600        3.92500       20.76800
C          1.36800        3.91700       19.39400
H          2.18900        1.14700       13.74200
H          3.21200        1.80200       12.95400
H          3.51200        1.04400       14.09500
H          5.20700        4.47400       15.23600
H          6.54800        4.64800       16.07800
H          5.03000        5.83600       17.65300
H          5.43100        6.78800       16.53900
H          3.29900        6.10200       15.64300
H          3.03600        6.79800       16.72900
H          5.94700        2.57000       14.25800
H          7.34900        1.03400       13.28000
H          8.14300       -0.59400       14.44800
H          7.80400       -0.77800       16.70200
H          6.44700        0.80900       17.65300
H          7.23500        3.81900       18.19600
H          7.88400        4.22800       20.39600
H          6.50300        3.58300       22.05200
H          4.47900        2.83600       21.45500
H          3.80200        2.26300       19.33700
H         -0.27700        5.82500       18.14200
H         -2.11400        6.68500       17.19100
H         -2.38400        6.93100       15.15400
H         -0.66000        6.45000       13.57900
H          1.20200        5.45700       14.36700
H          3.07000        6.58300       19.09200
H          2.88900        6.60400       21.21000
H          1.71300        4.94500       22.32400
H          0.71700        3.37900       21.10200
H          0.99900        3.48100       18.90200
I          2.77300        2.80800       13.78300
