75
C:\Users\Javier\OneDrive - Universitat de Barcelona\Tesi\4 - Contribucions\Treballs\3-PhD\chapter_1\cif\pc3p\YOSVOR.pc3p.pdb
Pd         0.86900        2.14600        8.91200
S          2.87200        1.37900       11.49700
S         -0.13000       -3.39800        9.06500
P          0.68000        4.37400        8.96000
P          0.12200        2.09000        6.81400
F          4.37700        1.54000        9.37800
F          4.62000        3.15200       10.76200
F          5.45600        1.24500       11.20900
F          1.87400       -4.25100       10.45700
F          0.91400       -2.59000       11.28500
F          0.04300       -4.49300       11.39800
O          1.15700        0.06100        8.99200
O          1.85700        2.20700       10.83000
O          3.10500        1.73100       12.84300
O          2.75600       -0.01300       11.21600
O         -0.24800       -4.68700        8.47600
O         -1.39300       -2.86700        9.49000
O          0.65900       -2.45900        8.33700
C         -0.66900        5.15000        8.03200
C         -0.64400        4.80200        6.54500
C         -1.05600        3.36200        6.26600
C          2.20700        5.11700        8.34800
C          2.34000        6.48200        8.24400
C          3.53400        7.00400        7.74200
C          4.55400        6.25000        7.39200
C          4.45000        4.89000        7.49000
C          3.28100        4.31700        7.94300
C          0.44600        4.92200       10.65900
C          1.55000        5.19400       11.48400
C          1.35400        5.59500       12.76900
C          0.11700        5.73700       13.30500
C         -0.96200        5.43500       12.53700
C         -0.81500        5.03500       11.21500
C         -0.76100        0.53500        6.52300
C         -0.36400       -0.35700        5.55300
C         -1.13400       -1.48300        5.31000
C         -2.28800       -1.69800        6.00800
C         -2.68200       -0.82500        6.97600
C         -1.91800        0.28700        7.25200
C          1.56200        2.12200        5.70900
C          1.60500        2.92400        4.57100
C          2.71800        2.90000        3.77100
C          3.77400        2.10200        4.06100
C          3.74900        1.30900        5.16000
C          2.65200        1.31900        5.99300
C          4.41500        1.85400       10.66300
C          0.71500       -3.68000       10.58900
H          0.81500       -0.50700        8.72700
H          1.54700       -0.17300        9.58100
H         -1.53600        4.85400        8.46700
H         -0.61700        5.94700        8.20700
H          0.36700        5.21400        6.16400
H         -1.21700        5.26700        6.18300
H         -1.97500        3.13400        6.70300
H         -1.24600        3.16000        5.34700
H          1.80800        6.98800        8.68900
H          3.47500        7.73400        7.65000
H          5.42500        6.61400        7.18500
H          5.17600        4.37400        7.24100
H          3.33800        3.37400        8.00200
H          2.39400        5.28100       11.19600
H          2.05500        5.78700       13.14600
H          0.13800        5.86700       14.13000
H         -1.77700        5.38700       12.94100
H         -1.49600        4.74700       10.63900
H          0.41200       -0.26700        5.12500
H         -0.82800       -1.98700        4.73500
H         -2.80200       -2.42700        5.90400
H         -3.42100       -1.05300        7.44500
H         -2.20800        0.89300        7.83500
H          0.88000        3.41400        4.41900
H          2.72000        3.41400        3.23100
H          4.40400        2.14700        3.67600
H          4.47900        0.86700        5.45900
H          2.60200        0.88000        6.62800
