53
C:\Users\Javier\OneDrive - Universitat de Barcelona\Tesi\4 - Contribucions\Treballs\3-PhD\chapter_1\cif\pc3p\ZUFGEM.pc3p.pdb
Pd         1.31600        0.14400        4.25000
P         -0.79100        0.45400        4.93400
P          1.63200        2.35200        4.40200
O          1.08900       -1.98200        4.29600
S          3.38300       -0.88500        2.14100
O          3.28500       -0.23800        3.47400
O          2.74100       -2.18000        2.12600
O          2.97000       -0.01700        1.07600
S          2.46000       -1.50300        7.53600
O          2.24100       -1.76200        8.93800
O          2.10800       -2.62800        6.67200
O          1.82100       -0.27000        7.08500
C          5.11000       -1.17400        1.91000
C          5.50500       -2.26000        1.16000
C          6.84100       -2.41400        0.82200
C          7.79500       -1.52400        1.24800
C          7.39300       -0.46800        2.02300
C          6.05800       -0.27800        2.36100
C          9.22200       -1.67800        0.79700
C          4.20200       -1.23300        7.35200
C          4.91400       -1.75400        6.28900
C          6.26800       -1.47900        6.18900
C          6.93600       -0.73600        7.11300
C          6.19300       -0.19600        8.15900
C          4.85100       -0.43000        8.26600
C          8.41500       -0.45300        7.01300
C         -1.63800       -1.11900        5.22900
C         -1.42100       -1.84700        6.39100
C         -2.12800       -3.00400        6.64000
C         -3.01400       -3.49900        5.72700
C         -3.21700       -2.80900        4.55400
C         -2.52500       -1.62000        4.30800
C         -1.84600        1.32000        3.74400
C         -1.54900        1.27000        2.38600
C         -2.35400        1.91000        1.47100
C         -3.44300        2.62100        1.89300
C         -3.75300        2.66600        3.24300
C         -2.97200        2.02100        4.17500
C         -0.87800        1.38400        6.48700
C         -0.42900        2.82800        6.35200
C          1.03000        3.03900        5.99000
C          0.93500        3.28400        3.02000
C          0.04200        4.32300        3.17600
C         -0.50300        4.94400        2.05600
C         -0.15400        4.54400        0.80200
C          0.76800        3.51600        0.63900
C          1.31000        2.86800        1.72200
C          3.39900        2.75200        4.46200
C          4.20300        2.04500        5.33800
C          5.53200        2.41700        5.51200
C          6.04700        3.47100        4.82300
C          5.25800        4.16900        3.93200
C          3.92700        3.81600        3.75000
